/batch
/config,noeldb,1     ! force off writing results to database
*get,_wallstrt,active,,time,wall
! ANSYS input file written by Workbench version 2025 R2
! File used for geometry attach: C:\Users\alami\Documents\Msc Civil Engineering\Year 2\Master Thesis\MSc-thesis---Minimal-model-of-the-Maeslantkering\ANSYS_FEM_truss\Truss_varying_cross_section_files\dp0\SYS\DM\SYS.agdb
/title,Truss_varying_cross_section--Modal (A5)
! ****** Begin Custom Load Command Snippet ******
/COM, ACT Extensions:
/COM,     LSDYNA, 2025.2
/COM,     5f463412-bd3e-484b-87e7-cbc0a665e474, wbex
/COM,/COM,     ANSYSMotion, 2025.2
/COM,     20180725-3f81-49eb-9f31-41364844c769, wbex
/COM,
! ****** End   Custom Load Command Snippet ******
*DIM,_wb_ProjectScratch_dir,string,248
_wb_ProjectScratch_dir(1) = 'C:\Users\alami\Documents\Msc Civil Engineering\Year 2\Master Thesis\MSc-thesis---Minimal-model-of-the-Maeslantkering\ANSYS_FEM_truss\_ProjectScratch\Scr147B\'
*DIM,_wb_SolverFiles_dir,string,248
_wb_SolverFiles_dir(1) = 'C:\Users\alami\Documents\Msc Civil Engineering\Year 2\Master Thesis\MSc-thesis---Minimal-model-of-the-Maeslantkering\ANSYS_FEM_truss\Truss_varying_cross_section_files\dp0\SYS\MECH\'
*DIM,_wb_userfiles_dir,string,248
_wb_userfiles_dir(1) = 'C:\Users\alami\Documents\Msc Civil Engineering\Year 2\Master Thesis\MSc-thesis---Minimal-model-of-the-Maeslantkering\ANSYS_FEM_truss\Truss_varying_cross_section_files\user_files\'
/com,--- Data in consistent MKS units. See Solving Units in the help system for more information.
/units,MKS
/nopr
/wb,file,start              !  signify a WB generated input file
/prep7
! Turn off shape checking because checks already performed inside WB mesher.
! See help system for more information.
SHPP,OFF,,NOWARN
/nolist
etcon,set             ! allow ANSYS to choose best KEYOP's for 180x elements, resets any applicable keyopt to MAPDL defaults
/com,*********** Send User Defined Coordinate System(s) ***********
csys,0
/com,*********** Nodes for the whole assembly ***********
nblock,3,,2362
(1i9,3e20.9e3)
        1     0.000000000E+00     0.000000000E+00     0.000000000E+00
        2     5.000000000E+00     0.000000000E+00     2.000000000E+01
        3     4.545454545E-01     0.000000000E+00     1.818181818E+00
        4     9.090909091E-01     0.000000000E+00     3.636363636E+00
        5     1.363636364E+00     0.000000000E+00     5.454545455E+00
        6     1.818181818E+00     0.000000000E+00     7.272727273E+00
        7     2.272727273E+00     0.000000000E+00     9.090909091E+00
        8     2.727272727E+00     0.000000000E+00     1.090909091E+01
        9     3.181818182E+00     0.000000000E+00     1.272727273E+01
       10     3.636363636E+00     0.000000000E+00     1.454545455E+01
       11     4.090909091E+00     0.000000000E+00     1.636363636E+01
       12     4.545454545E+00     0.000000000E+00     1.818181818E+01
       13     1.000000000E+01     0.000000000E+00     4.000000000E+01
       14     5.454545455E+00     0.000000000E+00     2.181818182E+01
       15     5.909090909E+00     0.000000000E+00     2.363636364E+01
       16     6.363636364E+00     0.000000000E+00     2.545454545E+01
       17     6.818181818E+00     0.000000000E+00     2.727272727E+01
       18     7.272727273E+00     0.000000000E+00     2.909090909E+01
       19     7.727272727E+00     0.000000000E+00     3.090909091E+01
       20     8.181818182E+00     0.000000000E+00     3.272727273E+01
! ... 2129 like lines cut
/wb,elem,start            !  set before creation of elements
/com,*********** Elements for Body 1 'Line Body' ***********
et,1,188
keyo,1,3,2
MAT,1 $ TYPE,1 $ REAL,1 $ SECNUM,1 $ ESYS,0
eblock,11,COMPACT,,11
(11i9)
        1        1        3     1040
        2        3        4     1041
        3        4        5     1042
        4        5        6     1043
        5        6        7     1044
        6        7        8     1045
        7        8        9     1046
        8        9       10     1047
        9       10       11     1048
       10       11       12     1049
       11       12        2     1050
-1
secnum,1    ! reset the section ID to default
!Material Id = {5197256C-ABEC-40DD-9A11-2D96ACF4DDF1}
/com,*********** Elements for Body 2 'Line Body' ***********
et,2,188
keyo,2,3,2
MAT,2 $ TYPE,2 $ REAL,2 $ SECNUM,2 $ ESYS,0
eblock,11,COMPACT,,11
(11i9)
       12        2       14     1051
       13       14       15     1052
       14       15       16     1053
       15       16       17     1054
       16       17       18     1055
       17       18       19     1056
       18       19       20     1057
       19       20       21     1058
       20       21       22     1059
       21       22       23     1060
       22       23       13     1061
-1
secnum,1    ! reset the section ID to default
!Material Id = {305E72FA-75DD-4D27-8920-EB983FA0F7B4}
/com,*********** Elements for Body 3 'Line Body' ***********
et,3,188
keyo,3,3,2
MAT,3 $ TYPE,3 $ REAL,3 $ SECNUM,3 $ ESYS,0
eblock,11,COMPACT,,11
(11i9)
       23       13       25     1062
       24       25       26     1063
       25       26       27     1064
       26       27       28     1065
       27       28       29     1066
       28       29       30     1067
       29       30       31     1068
       30       31       32     1069
       31       32       33     1070
       32       33       34     1071
       33       34       24     1072
-1
secnum,1    ! reset the section ID to default
!Material Id = {FCE79CA0-E84C-4C79-98BC-444CB0350934}
/com,*********** Elements for Body 4 'Line Body' ***********
et,4,188
keyo,4,3,2
MAT,4 $ TYPE,4 $ REAL,4 $ SECNUM,4 $ ESYS,0
eblock,11,COMPACT,,50
(11i9)
       34       35       37     1073
       35       37       38     1074
       36       38       39     1075
       37       39       40     1076
       38       40       41     1077
       39       41       42     1078
       40       42       43     1079
       41       43       44     1080
       42       44       45     1081
       43       45       36     1082
       44       46       47     1083
       45       47       48     1084
       46       48       49     1085
       47       49       50     1086
       48       50       51     1087
       49       51       52     1088
       50       52       53     1089
       51       53       54     1090
       52       54       55     1091
       53       55       35     1092
! ... 31 like lines cut
secnum,1    ! reset the section ID to default
!Material Id = {FD5D472F-EC5A-4EE4-A557-07D951679924}
/com,*********** Elements for Body 5 'Line Body' ***********
et,5,188
keyo,5,3,2
MAT,5 $ TYPE,5 $ REAL,5 $ SECNUM,5 $ ESYS,0
eblock,11,COMPACT,,10
(11i9)
       84       36       86     1123
       85       86       87     1124
       86       87       88     1125
       87       88       89     1126
       88       89       90     1127
       89       90       91     1128
       90       91       92     1129
       91       92       93     1130
       92       93       94     1131
       93       94       85     1132
-1
secnum,1    ! reset the section ID to default
!Material Id = {29B184F0-D302-4A8D-BFA6-876BB82D741B}
/com,*********** Elements for Body 6 'Line Body' ***********
et,6,188
keyo,6,3,2
MAT,6 $ TYPE,6 $ REAL,6 $ SECNUM,6 $ ESYS,0
eblock,11,COMPACT,,10
(11i9)
       94       85       96     1133
       95       96       97     1134
       96       97       98     1135
       97       98       99     1136
       98       99      100     1137
       99      100      101     1138
      100      101      102     1139
      101      102      103     1140
      102      103      104     1141
      103      104       95     1142
-1
secnum,1    ! reset the section ID to default
!Material Id = {E2BE8000-21FE-4C34-B9B4-CB7ACDF03DA2}
/com,*********** Elements for Body 7 'Line Body' ***********
et,7,188
keyo,7,3,2
MAT,7 $ TYPE,7 $ REAL,7 $ SECNUM,7 $ ESYS,0
eblock,11,COMPACT,,10
(11i9)
      104       95      106     1143
      105      106      107     1144
      106      107      108     1145
      107      108      109     1146
      108      109      110     1147
      109      110      111     1148
      110      111      112     1149
      111      112      113     1150
      112      113      114     1151
      113      114      105     1152
-1
secnum,1    ! reset the section ID to default
!Material Id = {2D9F7FFD-27D0-4BBC-AB73-F29BBDC7DE03}
/com,*********** Elements for Body 8 'Line Body' ***********
et,8,188
keyo,8,3,2
MAT,8 $ TYPE,8 $ REAL,8 $ SECNUM,8 $ ESYS,0
eblock,11,COMPACT,,10
(11i9)
      114      105      116     1153
      115      116      117     1154
      116      117      118     1155
      117      118      119     1156
      118      119      120     1157
      119      120      121     1158
      120      121      122     1159
      121      122      123     1160
      122      123      124     1161
      123      124      115     1162
-1
secnum,1    ! reset the section ID to default
!Material Id = {6423D103-F654-4AE0-BA3F-A6CBF264E874}
/com,*********** Elements for Body 9 'Line Body' ***********
et,9,188
keyo,9,3,2
MAT,9 $ TYPE,9 $ REAL,9 $ SECNUM,9 $ ESYS,0
eblock,11,COMPACT,,10
(11i9)
      124        1      126     1163
      125      126      127     1164
      126      127      128     1165
      127      128      129     1166
      128      129      130     1167
      129      130      131     1168
      130      131      132     1169
      131      132      133     1170
      132      133      134     1171
      133      134      125     1172
-1
secnum,1    ! reset the section ID to default
!Material Id = {138DB87B-7DD9-4310-A5DB-401C8E074786}
/com,*********** Elements for Body 10 'Line Body' ***********
et,10,188
keyo,10,3,2
MAT,10 $ TYPE,10 $ REAL,10 $ SECNUM,10 $ ESYS,0
eblock,11,COMPACT,,10
(11i9)
      134      125      136     1173
      135      136      137     1174
      136      137      138     1175
      137      138      139     1176
      138      139      140     1177
      139      140      141     1178
      140      141      142     1179
      141      142      143     1180
      142      143      144     1181
      143      144      135     1182
-1
secnum,1    ! reset the section ID to default
!Material Id = {40E72EC8-3508-491F-969F-D74F4E1D43F0}
/com,*********** Elements for Body 11 'Line Body' ***********
et,11,188
keyo,11,3,2
MAT,11 $ TYPE,11 $ REAL,11 $ SECNUM,11 $ ESYS,0
eblock,11,COMPACT,,10
(11i9)
      144      145      146     1183
      145      146      147     1184
      146      147      148     1185
      147      148      149     1186
      148      149      150     1187
      149      150      151     1188
      150      151      152     1189
      151      152      153     1190
      152      153      154     1191
      153      154      135     1192
-1
secnum,1    ! reset the section ID to default
!Material Id = {DDCF9E6F-7FD6-4BFB-BF0A-924FB360D69B}
/com,*********** Elements for Body 12 'Line Body' ***********
et,12,188
keyo,12,3,2
MAT,12 $ TYPE,12 $ REAL,12 $ SECNUM,12 $ ESYS,0
eblock,11,COMPACT,,50
(11i9)
      154      155      157     1193
      155      157      158     1194
      156      158      159     1195
      157      159      160     1196
      158      160      161     1197
      159      161      162     1198
      160      162      163     1199
      161      163      164     1200
      162      164      165     1201
      163      165      156     1202
      164      166      167     1203
      165      167      168     1204
      166      168      169     1205
      167      169      170     1206
      168      170      171     1207
      169      171      172     1208
      170      172      173     1209
      171      173      174     1210
      172      174      175     1211
      173      175      155     1212
! ... 31 like lines cut
secnum,1    ! reset the section ID to default
!Material Id = {8B387166-3603-4ABD-82DB-B06229E387B0}
/com,*********** Elements for Body 13 'Line Body' ***********
et,13,188
keyo,13,3,2
MAT,13 $ TYPE,13 $ REAL,13 $ SECNUM,13 $ ESYS,0
eblock,11,COMPACT,,10
(11i9)
      204      156      206     1243
      205      206      207     1244
      206      207      208     1245
      207      208      209     1246
      208      209      210     1247
      209      210      211     1248
      210      211      212     1249
      211      212      213     1250
      212      213      214     1251
      213      214      205     1252
-1
secnum,1    ! reset the section ID to default
!Material Id = {013D9B71-A40F-4D0B-8DBF-47AC1BF6C6DD}
/com,*********** Elements for Body 14 'Line Body' ***********
et,14,188
keyo,14,3,2
MAT,14 $ TYPE,14 $ REAL,14 $ SECNUM,14 $ ESYS,0
eblock,11,COMPACT,,10
(11i9)
      214      205      216     1253
      215      216      217     1254
      216      217      218     1255
      217      218      219     1256
      218      219      220     1257
      219      220      221     1258
      220      221      222     1259
      221      222      223     1260
      222      223      224     1261
      223      224      215     1262
-1
secnum,1    ! reset the section ID to default
!Material Id = {E5FC251E-4C74-4870-BDA2-78241F151829}
/com,*********** Elements for Body 15 'Line Body' ***********
et,15,188
keyo,15,3,2
MAT,15 $ TYPE,15 $ REAL,15 $ SECNUM,15 $ ESYS,0
eblock,11,COMPACT,,10
(11i9)
      224      215      226     1263
      225      226      227     1264
      226      227      228     1265
      227      228      229     1266
      228      229      230     1267
      229      230      231     1268
      230      231      232     1269
      231      232      233     1270
      232      233      234     1271
      233      234      225     1272
-1
secnum,1    ! reset the section ID to default
!Material Id = {7654818F-E7F4-4291-B308-9049DB730E01}
/com,*********** Elements for Body 16 'Line Body' ***********
et,16,188
keyo,16,3,2
MAT,16 $ TYPE,16 $ REAL,16 $ SECNUM,16 $ ESYS,0
eblock,11,COMPACT,,10
(11i9)
      234      225      236     1273
      235      236      237     1274
      236      237      238     1275
      237      238      239     1276
      238      239      240     1277
      239      240      241     1278
      240      241      242     1279
      241      242      243     1280
      242      243      244     1281
      243      244      235     1282
-1
secnum,1    ! reset the section ID to default
!Material Id = {3817CB26-9406-4C76-B533-9CB9FC4A0EBC}
/com,*********** Elements for Body 17 'Line Body' ***********
et,17,188
keyo,17,3,2
MAT,17 $ TYPE,17 $ REAL,17 $ SECNUM,17 $ ESYS,0
eblock,11,COMPACT,,13
(11i9)
      244      235      245     1283
      245      245      246     1284
      246      246      247     1285
      247      247      248     1286
      248      248      249     1287
      249      249      250     1288
      250      250      251     1289
      251      251      252     1290
      252      252      253     1291
      253      253      254     1292
      254      254      255     1293
      255      255      256     1294
      256      256      105     1295
-1
secnum,1    ! reset the section ID to default
!Material Id = {5F22D258-0C46-46FB-8286-98C018D636CF}
/com,*********** Elements for Body 18 'Line Body' ***********
et,18,188
keyo,18,3,2
MAT,18 $ TYPE,18 $ REAL,18 $ SECNUM,18 $ ESYS,0
eblock,11,COMPACT,,8
(11i9)
      257      225      257     1296
      258      257      258     1297
      259      258      259     1298
      260      259      260     1299
      261      260      261     1300
      262      261      262     1301
      263      262      263     1302
      264      263      105     1303
-1
secnum,1    ! reset the section ID to default
!Material Id = {FCB1EB67-3903-4FA0-B820-EA7BD7E54B5C}
/com,*********** Elements for Body 19 'Line Body' ***********
et,19,188
keyo,19,3,2
MAT,19 $ TYPE,19 $ REAL,19 $ SECNUM,19 $ ESYS,0
eblock,11,COMPACT,,13
(11i9)
      265      225      264     1304
      266      264      265     1305
      267      265      266     1306
      268      266      267     1307
      269      267      268     1308
      270      268      269     1309
      271      269      270     1310
      272      270      271     1311
      273      271      272     1312
      274      272      273     1313
      275      273      274     1314
      276      274      275     1315
      277      275       95     1316
-1
secnum,1    ! reset the section ID to default
!Material Id = {4F439573-AABE-4A91-9C65-B08128446595}
/com,*********** Elements for Body 20 'Line Body' ***********
et,20,188
keyo,20,3,2
MAT,20 $ TYPE,20 $ REAL,20 $ SECNUM,20 $ ESYS,0
eblock,11,COMPACT,,8
(11i9)
      278       95      276     1317
      279      276      277     1318
      280      277      278     1319
      281      278      279     1320
      282      279      280     1321
      283      280      281     1322
      284      281      282     1323
      285      282      215     1324
-1
secnum,1    ! reset the section ID to default
!Material Id = {452C1620-D68F-48DB-AF0E-35FFEFF1EA0E}
/com,*********** Elements for Body 21 'Line Body' ***********
et,21,188
keyo,21,3,2
MAT,21 $ TYPE,21 $ REAL,21 $ SECNUM,21 $ ESYS,0
eblock,11,COMPACT,,13
(11i9)
      286      215      283     1325
      287      283      284     1326
      288      284      285     1327
      289      285      286     1328
      290      286      287     1329
      291      287      288     1330
      292      288      289     1331
      293      289      290     1332
      294      290      291     1333
      295      291      292     1334
      296      292      293     1335
      297      293      294     1336
      298      294       85     1337
-1
secnum,1    ! reset the section ID to default
!Material Id = {AF8084E0-48AD-4E2E-A032-7B40CEFE96FE}
/com,*********** Elements for Body 22 'Line Body' ***********
et,22,188
keyo,22,3,2
MAT,22 $ TYPE,22 $ REAL,22 $ SECNUM,22 $ ESYS,0
eblock,11,COMPACT,,8
(11i9)
      299      205      295     1338
      300      295      296     1339
      301      296      297     1340
      302      297      298     1341
      303      298      299     1342
      304      299      300     1343
      305      300      301     1344
      306      301       85     1345
-1
secnum,1    ! reset the section ID to default
!Material Id = {DFCDCAF8-985D-4E46-83DC-CBCBC4C312DB}
/com,*********** Elements for Body 23 'Line Body' ***********
et,23,188
keyo,23,3,2
MAT,23 $ TYPE,23 $ REAL,23 $ SECNUM,23 $ ESYS,0
eblock,11,COMPACT,,13
(11i9)
      307      205      302     1346
      308      302      303     1347
      309      303      304     1348
      310      304      305     1349
      311      305      306     1350
      312      306      307     1351
      313      307      308     1352
      314      308      309     1353
      315      309      310     1354
      316      310      311     1355
      317      311      312     1356
      318      312      313     1357
      319      313       36     1358
-1
secnum,1    ! reset the section ID to default
!Material Id = {7BE1B08A-BC8E-4346-AFDF-E1A815887D22}
/com,*********** Elements for Body 24 'Line Body' ***********
et,24,188
keyo,24,3,2
MAT,24 $ TYPE,24 $ REAL,24 $ SECNUM,24 $ ESYS,0
eblock,11,COMPACT,,8
(11i9)
      320      156      314     1359
      321      314      315     1360
      322      315      316     1361
      323      316      317     1362
      324      317      318     1363
      325      318      319     1364
      326      319      320     1365
      327      320       36     1366
-1
secnum,1    ! reset the section ID to default
!Material Id = {38B94B99-F5C9-42BC-A904-04EA07ABD69D}
/com,*********** Elements for Body 25 'Line Body' ***********
et,25,188
keyo,25,3,2
MAT,25 $ TYPE,25 $ REAL,25 $ SECNUM,25 $ ESYS,0
eblock,11,COMPACT,,13
(11i9)
      328      156      321     1367
      329      321      322     1368
      330      322      323     1369
      331      323      324     1370
      332      324      325     1371
      333      325      326     1372
      334      326      327     1373
      335      327      328     1374
      336      328      329     1375
      337      329      330     1376
      338      330      331     1377
      339      331      332     1378
      340      332       35     1379
-1
secnum,1    ! reset the section ID to default
!Material Id = {B57EBB63-522D-43EA-A7F0-4C45B7F6444C}
/com,*********** Elements for Body 26 'Line Body' ***********
et,26,188
keyo,26,3,2
MAT,26 $ TYPE,26 $ REAL,26 $ SECNUM,26 $ ESYS,0
eblock,11,COMPACT,,8
(11i9)
      341       35      333     1380
      342      333      334     1381
      343      334      335     1382
      344      335      336     1383
      345      336      337     1384
      346      337      338     1385
      347      338      339     1386
      348      339      155     1387
-1
secnum,1    ! reset the section ID to default
!Material Id = {57961C50-66EF-4960-8AE7-2F33F76463F0}
/com,*********** Elements for Body 27 'Line Body' ***********
et,27,188
keyo,27,3,2
MAT,27 $ TYPE,27 $ REAL,27 $ SECNUM,27 $ ESYS,0
eblock,11,COMPACT,,13
(11i9)
      349      155      340     1388
      350      340      341     1389
      351      341      342     1390
      352      342      343     1391
      353      343      344     1392
      354      344      345     1393
      355      345      346     1394
      356      346      347     1395
      357      347      348     1396
      358      348      349     1397
      359      349      350     1398
      360      350      351     1399
      361      351       46     1400
-1
secnum,1    ! reset the section ID to default
!Material Id = {6668C864-D951-4BA3-9217-FB4C7A8555E3}
/com,*********** Elements for Body 28 'Line Body' ***********
et,28,188
keyo,28,3,2
MAT,28 $ TYPE,28 $ REAL,28 $ SECNUM,28 $ ESYS,0
eblock,11,COMPACT,,8
(11i9)
      362       46      352     1401
      363      352      353     1402
      364      353      354     1403
      365      354      355     1404
      366      355      356     1405
      367      356      357     1406
      368      357      358     1407
      369      358      166     1408
-1
secnum,1    ! reset the section ID to default
!Material Id = {BCDF1E1A-F8C1-47DA-9BCB-43C1191CA04C}
/com,*********** Elements for Body 29 'Line Body' ***********
et,29,188
keyo,29,3,2
MAT,29 $ TYPE,29 $ REAL,29 $ SECNUM,29 $ ESYS,0
eblock,11,COMPACT,,13
(11i9)
      370      166      359     1409
      371      359      360     1410
      372      360      361     1411
      373      361      362     1412
      374      362      363     1413
      375      363      364     1414
      376      364      365     1415
      377      365      366     1416
      378      366      367     1417
      379      367      368     1418
      380      368      369     1419
      381      369      370     1420
      382      370       56     1421
-1
secnum,1    ! reset the section ID to default
!Material Id = {3C157E39-D421-49AA-BC79-3F935706DCC6}
/com,*********** Elements for Body 30 'Line Body' ***********
et,30,188
keyo,30,3,2
MAT,30 $ TYPE,30 $ REAL,30 $ SECNUM,30 $ ESYS,0
eblock,11,COMPACT,,8
(11i9)
      383      176      371     1422
      384      371      372     1423
      385      372      373     1424
      386      373      374     1425
      387      374      375     1426
      388      375      376     1427
      389      376      377     1428
      390      377       56     1429
-1
secnum,1    ! reset the section ID to default
!Material Id = {B71B1AB6-144B-4373-B9CA-F6E7B576A76F}
/com,*********** Elements for Body 31 'Line Body' ***********
et,31,188
keyo,31,3,2
MAT,31 $ TYPE,31 $ REAL,31 $ SECNUM,31 $ ESYS,0
eblock,11,COMPACT,,13
(11i9)
      391      176      378     1430
      392      378      379     1431
      393      379      380     1432
      394      380      381     1433
      395      381      382     1434
      396      382      383     1435
      397      383      384     1436
      398      384      385     1437
      399      385      386     1438
      400      386      387     1439
      401      387      388     1440
      402      388      389     1441
      403      389       66     1442
-1
secnum,1    ! reset the section ID to default
!Material Id = {D9FECC29-06DE-4784-B365-1245B3326A53}
/com,*********** Elements for Body 32 'Line Body' ***********
et,32,188
keyo,32,3,2
MAT,32 $ TYPE,32 $ REAL,32 $ SECNUM,32 $ ESYS,0
eblock,11,COMPACT,,8
(11i9)
      404       66      390     1443
      405      390      391     1444
      406      391      392     1445
      407      392      393     1446
      408      393      394     1447
      409      394      395     1448
      410      395      396     1449
      411      396      186     1450
-1
secnum,1    ! reset the section ID to default
!Material Id = {18EB3ECD-A789-4275-B133-80D29F65203B}
/com,*********** Elements for Body 33 'Line Body' ***********
et,33,188
keyo,33,3,2
MAT,33 $ TYPE,33 $ REAL,33 $ SECNUM,33 $ ESYS,0
eblock,11,COMPACT,,13
(11i9)
      412      186      397     1451
      413      397      398     1452
      414      398      399     1453
      415      399      400     1454
      416      400      401     1455
      417      401      402     1456
      418      402      403     1457
      419      403      404     1458
      420      404      405     1459
      421      405      406     1460
      422      406      407     1461
      423      407      408     1462
      424      408       24     1463
-1
secnum,1    ! reset the section ID to default
!Material Id = {85D55CFC-427E-4E19-9CBF-6A10ADE2A0DB}
/com,*********** Elements for Body 34 'Line Body' ***********
et,34,188
keyo,34,3,2
MAT,34 $ TYPE,34 $ REAL,34 $ SECNUM,34 $ ESYS,0
eblock,11,COMPACT,,8
(11i9)
      425       24      409     1464
      426      409      410     1465
      427      410      411     1466
      428      411      412     1467
      429      412      413     1468
      430      413      414     1469
      431      414      415     1470
      432      415      145     1471
-1
secnum,1    ! reset the section ID to default
!Material Id = {866D62B7-A8F0-4CA0-A495-E2A64C77891F}
/com,*********** Elements for Body 35 'Line Body' ***********
et,35,188
keyo,35,3,2
MAT,35 $ TYPE,35 $ REAL,35 $ SECNUM,35 $ ESYS,0
eblock,11,COMPACT,,12
(11i9)
      433      145      416     1472
      434      416      417     1473
      435      417      418     1474
      436      418      419     1475
      437      419      420     1476
      438      420      421     1477
      439      421      422     1478
      440      422      423     1479
      441      423      424     1480
      442      424      425     1481
      443      425      426     1482
      444      426       13     1483
-1
secnum,1    ! reset the section ID to default
!Material Id = {F96100CB-E6FD-46F4-ADAB-8BCB4AF18976}
/com,*********** Elements for Body 36 'Line Body' ***********
et,36,188
keyo,36,3,2
MAT,36 $ TYPE,36 $ REAL,36 $ SECNUM,36 $ ESYS,0
eblock,11,COMPACT,,5
(11i9)
      445       13      427     1484
      446      427      428     1485
      447      428      429     1486
      448      429      430     1487
      449      430      135     1488
-1
secnum,1    ! reset the section ID to default
!Material Id = {C422E638-EBBE-4688-BC4B-E918B6A523E2}
/com,*********** Elements for Body 37 'Line Body' ***********
et,37,188
keyo,37,3,2
MAT,37 $ TYPE,37 $ REAL,37 $ SECNUM,37 $ ESYS,0
eblock,11,COMPACT,,11
(11i9)
      450      135      431     1489
      451      431      432     1490
      452      432      433     1491
      453      433      434     1492
      454      434      435     1493
      455      435      436     1494
      456      436      437     1495
      457      437      438     1496
      458      438      439     1497
      459      439      440     1498
      460      440        2     1499
-1
secnum,1    ! reset the section ID to default
!Material Id = {0EE1A85C-62FE-4160-A511-744DD77EF824}
/com,*********** Elements for Body 38 'Line Body' ***********
et,38,188
keyo,38,3,2
MAT,38 $ TYPE,38 $ REAL,38 $ SECNUM,38 $ ESYS,0
eblock,11,COMPACT,,3
(11i9)
      461        2      441     1500
      462      441      442     1501
      463      442      125     1502
-1
secnum,1    ! reset the section ID to default
!Material Id = {9FD49ABE-B0B4-4C8F-B436-D7348FD22B35}
/com,*********** Elements for Body 39 'Line Body' ***********
et,39,188
keyo,39,3,2
MAT,39 $ TYPE,39 $ REAL,39 $ SECNUM,39 $ ESYS,0
eblock,11,COMPACT,,28
(11i9)
      464      443      445     1503
      465      445      446     1504
      466      446      447     1505
      467      447      448     1506
      468      448      449     1507
      469      449      450     1508
      470      450      451     1509
      471      451      452     1510
      472      452      453     1511
      473      453      454     1512
      474      454      444     1513
      475      455      456     1514
      476      456      457     1515
      477      457      458     1516
      478      458      459     1517
      479      459      460     1518
      480      460      461     1519
      481      461      462     1520
      482      462      463     1521
      483      463      464     1522
! ... 9 like lines cut
secnum,1    ! reset the section ID to default
!Material Id = {E897163A-A950-4EF7-83EB-00623F253CA5}
/com,*********** Elements for Body 40 'Line Body' ***********
et,40,188
keyo,40,3,2
MAT,40 $ TYPE,40 $ REAL,40 $ SECNUM,40 $ ESYS,0
eblock,11,COMPACT,,10
(11i9)
      492      444      473     1531
      493      473      474     1532
      494      474      475     1533
      495      475      476     1534
      496      476      477     1535
      497      477      478     1536
      498      478      479     1537
      499      479      480     1538
      500      480      481     1539
      501      481      472     1540
-1
secnum,1    ! reset the section ID to default
!Material Id = {B8073BDE-CF12-4FE0-96D4-123C8B7B2430}
/com,*********** Elements for Body 41 'Line Body' ***********
et,41,188
keyo,41,3,2
MAT,41 $ TYPE,41 $ REAL,41 $ SECNUM,41 $ ESYS,0
eblock,11,COMPACT,,10
(11i9)
      502      472      483     1541
      503      483      484     1542
      504      484      485     1543
      505      485      486     1544
      506      486      487     1545
      507      487      488     1546
      508      488      489     1547
      509      489      490     1548
      510      490      491     1549
      511      491      482     1550
-1
secnum,1    ! reset the section ID to default
!Material Id = {303D967D-DC3C-415F-94AB-2E689B83AB85}
/com,*********** Elements for Body 42 'Line Body' ***********
et,42,188
keyo,42,3,2
MAT,42 $ TYPE,42 $ REAL,42 $ SECNUM,42 $ ESYS,0
eblock,11,COMPACT,,51
(11i9)
      512      492      494     1551
      513      494      495     1552
      514      495      496     1553
      515      496      497     1554
      516      497      498     1555
      517      498      493     1556
      518      499      500     1557
      519      500      501     1558
      520      501      502     1559
      521      502      503     1560
      522      503      492     1561
      523      504      505     1562
      524      505      506     1563
      525      506      507     1564
      526      507      508     1565
      527      508      509     1566
      528      509      510     1567
      529      510      511     1568
      530      511      512     1569
      531      512      513     1570
! ... 32 like lines cut
secnum,1    ! reset the section ID to default
!Material Id = {289F57AE-C76C-4143-8741-03A829CCCF8F}
/com,*********** Elements for Body 43 'Line Body' ***********
et,43,188
keyo,43,3,2
MAT,43 $ TYPE,43 $ REAL,43 $ SECNUM,43 $ ESYS,0
eblock,11,COMPACT,,22
(11i9)
      563      543      545     1602
      564      545      546     1603
      565      546      547     1604
      566      547      548     1605
      567      548      549     1606
      568      549      550     1607
      569      550      551     1608
      570      551      552     1609
      571      552      553     1610
      572      553      554     1611
      573      554      544     1612
      574      493      555     1613
      575      555      556     1614
      576      556      557     1615
      577      557      558     1616
      578      558      559     1617
      579      559      560     1618
      580      560      561     1619
      581      561      562     1620
      582      562      563     1621
      583      563      564     1622
      584      564      543     1623
-1
secnum,1    ! reset the section ID to default
!Material Id = {C192203B-B40A-44E5-A869-9068F781E8DE}
/com,*********** Elements for Body 44 'Line Body' ***********
et,44,188
keyo,44,3,2
MAT,44 $ TYPE,44 $ REAL,44 $ SECNUM,44 $ ESYS,0
eblock,11,COMPACT,,10
(11i9)
      585      544      565     1624
      586      565      566     1625
      587      566      567     1626
      588      567      568     1627
      589      568      569     1628
      590      569      570     1629
      591      570      571     1630
      592      571      572     1631
      593      572      573     1632
      594      573        1     1633
-1
secnum,1    ! reset the section ID to default
!Material Id = {74BB8C95-298C-4F81-9811-E94C6225715F}
/com,*********** Elements for Body 45 'Line Body' ***********
et,45,188
keyo,45,3,2
MAT,45 $ TYPE,45 $ REAL,45 $ SECNUM,45 $ ESYS,0
eblock,11,COMPACT,,10
(11i9)
      595      544      574     1634
      596      574      575     1635
      597      575      576     1636
      598      576      577     1637
      599      577      578     1638
      600      578      579     1639
      601      579      580     1640
      602      580      581     1641
      603      581      582     1642
      604      582      125     1643
-1
secnum,1    ! reset the section ID to default
!Material Id = {A50F3F5A-0407-4D59-BF27-9A595F2E10FA}
/com,*********** Elements for Body 46 'Line Body' ***********
et,46,188
keyo,46,3,2
MAT,46 $ TYPE,46 $ REAL,46 $ SECNUM,46 $ ESYS,0
eblock,11,COMPACT,,11
(11i9)
      605      125      583     1644
      606      583      584     1645
      607      584      585     1646
      608      585      586     1647
      609      586      587     1648
      610      587      588     1649
      611      588      589     1650
      612      589      590     1651
      613      590      591     1652
      614      591      592     1653
      615      592      543     1654
-1
secnum,1    ! reset the section ID to default
!Material Id = {0D3A02F0-CFF0-4F12-A3C7-1045C243D11F}
/com,*********** Elements for Body 47 'Line Body' ***********
et,47,188
keyo,47,3,2
MAT,47 $ TYPE,47 $ REAL,47 $ SECNUM,47 $ ESYS,0
eblock,11,COMPACT,,154
(11i9)
      616      156      593     1655
      617      593      594     1656
      618      594      595     1657
      619      595      596     1658
      620      596      597     1659
      621      597      598     1660
      622      598      599     1661
      623      599      600     1662
      624      600      601     1663
      625      601      602     1664
      626      602      472     1665
      627      482      603     1666
      628      603      604     1667
      629      604      605     1668
      630      605      606     1669
      631      606      607     1670
      632      607      608     1671
      633      608      609     1672
      634      609      610     1673
      635      610      611     1674
! ... 135 like lines cut
secnum,1    ! reset the section ID to default
!Material Id = {E5D33A24-43CA-476B-9DB3-D1230E7C14F2}
/com,*********** Elements for Body 48 'Line Body' ***********
et,48,188
keyo,48,3,2
MAT,48 $ TYPE,48 $ REAL,48 $ SECNUM,48 $ ESYS,0
eblock,11,COMPACT,,11
(11i9)
      770      472      733     1809
      771      733      734     1810
      772      734      735     1811
      773      735      736     1812
      774      736      737     1813
      775      737      738     1814
      776      738      739     1815
      777      739      740     1816
      778      740      741     1817
      779      741      742     1818
      780      742      205     1819
-1
secnum,1    ! reset the section ID to default
!Material Id = {8D2FE741-E0E7-49AF-A55D-A6F586066084}
/com,*********** Elements for Body 49 'Line Body' ***********
et,49,188
keyo,49,3,2
MAT,49 $ TYPE,49 $ REAL,49 $ SECNUM,49 $ ESYS,0
eblock,11,COMPACT,,32
(11i9)
      781      215      743     1820
      782      743      744     1821
      783      744      745     1822
      784      745      746     1823
      785      746      747     1824
      786      747      748     1825
      787      748      749     1826
      788      749      750     1827
      789      750      751     1828
      790      751      443     1829
      791      444      752     1830
      792      752      753     1831
      793      753      754     1832
      794      754      755     1833
      795      755      756     1834
      796      756      757     1835
      797      757      758     1836
      798      758      759     1837
      799      759      760     1838
      800      760      761     1839
! ... 13 like lines cut
secnum,1    ! reset the section ID to default
!Material Id = {F3C53960-36AE-4529-80B4-87DAD2579892}
/com,*********** Elements for Body 50 'Line Body' ***********
et,50,188
keyo,50,3,2
MAT,50 $ TYPE,50 $ REAL,50 $ SECNUM,50 $ ESYS,0
eblock,11,COMPACT,,19
(11i9)
      813      225      772     1852
      814      772      773     1853
      815      773      774     1854
      816      774      775     1855
      817      775      776     1856
      818      776      777     1857
      819      777      778     1858
      820      778      779     1859
      821      779      455     1860
      822      443      780     1861
      823      780      781     1862
      824      781      782     1863
      825      782      783     1864
      826      783      784     1865
      827      784      785     1866
      828      785      786     1867
      829      786      787     1868
      830      787      788     1869
      831      788      225     1870
-1
secnum,1    ! reset the section ID to default
!Material Id = {C00587B9-F9C7-43A5-8F59-035F5066CDB5}
/com,*********** Elements for Body 51 'Line Body' ***********
et,51,188
keyo,51,3,2
MAT,51 $ TYPE,51 $ REAL,51 $ SECNUM,51 $ ESYS,0
eblock,11,COMPACT,,9
(11i9)
      832      455      789     1871
      833      789      790     1872
      834      790      791     1873
      835      791      792     1874
      836      792      793     1875
      837      793      794     1876
      838      794      795     1877
      839      795      796     1878
      840      796      235     1879
-1
secnum,1    ! reset the section ID to default
!Material Id = {114059C9-533B-4EA8-AC35-C1C339EF0C31}
/com,*********** Elements for Body 52 'Line Body' ***********
et,52,188
keyo,52,3,2
MAT,52 $ TYPE,52 $ REAL,52 $ SECNUM,52 $ ESYS,0
eblock,11,COMPACT,,10
(11i9)
      841        2      797     1880
      842      797      798     1881
      843      798      799     1882
      844      799      800     1883
      845      800      801     1884
      846      801      802     1885
      847      802      803     1886
      848      803      804     1887
      849      804      805     1888
      850      805      544     1889
-1
secnum,1    ! reset the section ID to default
!Material Id = {655236F6-82DF-4CFD-A923-8D519CCBA295}
/com,*********** Elements for Body 53 'Line Body' ***********
et,53,188
keyo,53,3,2
MAT,53 $ TYPE,53 $ REAL,53 $ SECNUM,53 $ ESYS,0
eblock,11,COMPACT,,11
(11i9)
      851        2      806     1890
      852      806      807     1891
      853      807      808     1892
      854      808      809     1893
      855      809      810     1894
      856      810      811     1895
      857      811      812     1896
      858      812      813     1897
      859      813      814     1898
      860      814      815     1899
      861      815      543     1900
-1
secnum,1    ! reset the section ID to default
!Material Id = {61F2D3E9-6FC5-4C1D-A69E-4E7B5DC49918}
/com,*********** Elements for Body 54 'Line Body' ***********
et,54,188
keyo,54,3,2
MAT,54 $ TYPE,54 $ REAL,54 $ SECNUM,54 $ ESYS,0
eblock,11,COMPACT,,11
(11i9)
      862       13      816     1901
      863      816      817     1902
      864      817      818     1903
      865      818      819     1904
      866      819      820     1905
      867      820      821     1906
      868      821      822     1907
      869      822      823     1908
      870      823      824     1909
      871      824      825     1910
      872      825      543     1911
-1
secnum,1    ! reset the section ID to default
!Material Id = {867F26AF-6101-4136-A985-DAD10186687C}
/com,*********** Elements for Body 55 'Line Body' ***********
et,55,188
keyo,55,3,2
MAT,55 $ TYPE,55 $ REAL,55 $ SECNUM,55 $ ESYS,0
eblock,11,COMPACT,,11
(11i9)
      873      493      826     1912
      874      826      827     1913
      875      827      828     1914
      876      828      829     1915
      877      829      830     1916
      878      830      831     1917
      879      831      832     1918
      880      832      833     1919
      881      833      834     1920
      882      834      835     1921
      883      835       13     1922
-1
secnum,1    ! reset the section ID to default
!Material Id = {7BAF2405-CE1D-4B5B-AB9C-720B639C84F0}
/com,*********** Elements for Body 56 'Line Body' ***********
et,56,188
keyo,56,3,2
MAT,56 $ TYPE,56 $ REAL,56 $ SECNUM,56 $ ESYS,0
eblock,11,COMPACT,,133
(11i9)
      884       36      836     1923
      885      836      837     1924
      886      837      838     1925
      887      838      839     1926
      888      839      840     1927
      889      840      841     1928
      890      841      842     1929
      891      842      843     1930
      892      843      844     1931
      893      844      845     1932
      894      845      472     1933
      895      482      846     1934
      896      846      847     1935
      897      847      848     1936
      898      848      849     1937
      899      849      850     1938
      900      850      851     1939
      901      851      852     1940
      902      852      853     1941
      903      853      854     1942
! ... 114 like lines cut
secnum,1    ! reset the section ID to default
!Material Id = {A14FDFF4-EE29-4D17-945E-7E79C920C183}
/com,*********** Elements for Body 57 'Line Body' ***********
et,57,188
keyo,57,3,2
MAT,57 $ TYPE,57 $ REAL,57 $ SECNUM,57 $ ESYS,0
eblock,11,COMPACT,,11
(11i9)
     1017       85      957     2056
     1018      957      958     2057
     1019      958      959     2058
     1020      959      960     2059
     1021      960      961     2060
     1022      961      962     2061
     1023      962      963     2062
     1024      963      964     2063
     1025      964      965     2064
     1026      965      966     2065
     1027      966      472     2066
-1
secnum,1    ! reset the section ID to default
!Material Id = {58D24D50-A7D3-48FC-BD2D-411E0945328D}
/com,*********** Elements for Body 58 'Line Body' ***********
et,58,188
keyo,58,3,2
MAT,58 $ TYPE,58 $ REAL,58 $ SECNUM,58 $ ESYS,0
eblock,11,COMPACT,,32
(11i9)
     1028       95      967     2067
     1029      967      968     2068
     1030      968      969     2069
     1031      969      970     2070
     1032      970      971     2071
     1033      971      972     2072
     1034      972      973     2073
     1035      973      974     2074
     1036      974      975     2075
     1037      975      443     2076
     1038      444      976     2077
     1039      976      977     2078
     1040      977      978     2079
     1041      978      979     2080
     1042      979      980     2081
     1043      980      981     2082
     1044      981      982     2083
     1045      982      983     2084
     1046      983      984     2085
     1047      984      985     2086
! ... 13 like lines cut
secnum,1    ! reset the section ID to default
!Material Id = {CD6F8626-F5A2-4420-85D6-97AB3E0B0A74}
/com,*********** Elements for Body 59 'Line Body' ***********
et,59,188
keyo,59,3,2
MAT,59 $ TYPE,59 $ REAL,59 $ SECNUM,59 $ ESYS,0
eblock,11,COMPACT,,19
(11i9)
     1060      455      996     2099
     1061      996      997     2100
     1062      997      998     2101
     1063      998      999     2102
     1064      999     1000     2103
     1065     1000     1001     2104
     1066     1001     1002     2105
     1067     1002     1003     2106
     1068     1003      105     2107
     1069      443     1004     2108
     1070     1004     1005     2109
     1071     1005     1006     2110
     1072     1006     1007     2111
     1073     1007     1008     2112
     1074     1008     1009     2113
     1075     1009     1010     2114
     1076     1010     1011     2115
     1077     1011     1012     2116
     1078     1012      105     2117
-1
secnum,1    ! reset the section ID to default
!Material Id = {73D834CB-FF05-4F35-B3F0-AEE642FC87CB}
/com,*********** Elements for Body 60 'Line Body' ***********
et,60,188
keyo,60,3,2
MAT,60 $ TYPE,60 $ REAL,60 $ SECNUM,60 $ ESYS,0
eblock,11,COMPACT,,9
(11i9)
     1079      455     1013     2118
     1080     1013     1014     2119
     1081     1014     1015     2120
     1082     1015     1016     2121
     1083     1016     1017     2122
     1084     1017     1018     2123
     1085     1018     1019     2124
     1086     1019     1020     2125
     1087     1020      115     2126
-1
secnum,1    ! reset the section ID to default
!Material Id = {A07293C6-ABEF-4DF0-B45A-42D2A518C39C}
/com,*********** Elements for Body 61 'Line Body' ***********
et,61,188
keyo,61,3,2
MAT,61 $ TYPE,61 $ REAL,61 $ SECNUM,61 $ ESYS,0
eblock,11,COMPACT,,22
(11i9)
     1088      235     1021     2127
     1089     1021     1022     2128
     1090     1022     1023     2129
     1091     1023     1024     2130
     1092     1024     1025     2131
     1093     1025     1026     2132
     1094     1026     1027     2133
     1095     1027      115     2134
     1096      466     1028     2135
     1097     1028     1029     2136
     1098     1029     1030     2137
     1099     1030     1031     2138
     1100     1031     1032     2139
     1101     1032     1033     2140
     1102     1033      235     2141
     1103      466     1034     2142
     1104     1034     1035     2143
     1105     1035     1036     2144
     1106     1036     1037     2145
     1107     1037     1038     2146
     1108     1038     1039     2147
     1109     1039      115     2148
-1
secnum,1    ! reset the section ID to default
!Material Id = {DFA16E23-EBBA-4B77-9B93-3C209DE593AD}
/wb,elem,end               !  done creating elements
toffst,273.15,      ! Temperature offset from absolute zero
/com,*********** Set Reference Temperature ***********
tref,22.
/wb,mat,start              !  starting to send materials
/com,*********** Send Materials ***********
Temperature = 'TEMP' ! Temperature
MP,DENS,1,7850,	! kg m^-3
MP,ALPX,1,1.2e-05,	! C^-1
MP,C,1,434,	! J kg^-1 C^-1
MP,KXX,1,60.5,	! W m^-1 C^-1
MP,RSVX,1,1.7e-07,	! kg m^3 A^-2 s^-3
MP,EX,1,200000000000,	! Pa
MP,NUXY,1,0.3,
MP,MURX,1,10000,
MP,UVID,1,6f80b055-9d3f-4403-963f-44a1a2013469
MP,UMID,1,59002a79-71c2-428e-906b-55d7dbee100e

Temperature = 'TEMP' ! Temperature
MP,DENS,2,7850,	! kg m^-3
MP,ALPX,2,1.2e-05,	! C^-1
MP,C,2,434,	! J kg^-1 C^-1
MP,KXX,2,60.5,	! W m^-1 C^-1
MP,RSVX,2,1.7e-07,	! kg m^3 A^-2 s^-3
MP,EX,2,200000000000,	! Pa
MP,NUXY,2,0.3,
MP,MURX,2,10000,
MP,UVID,2,6f80b055-9d3f-4403-963f-44a1a2013469
MP,UMID,2,59002a79-71c2-428e-906b-55d7dbee100e

Temperature = 'TEMP' ! Temperature
MP,DENS,3,7850,	! kg m^-3
MP,ALPX,3,1.2e-05,	! C^-1
MP,C,3,434,	! J kg^-1 C^-1
MP,KXX,3,60.5,	! W m^-1 C^-1
MP,RSVX,3,1.7e-07,	! kg m^3 A^-2 s^-3
MP,EX,3,200000000000,	! Pa
MP,NUXY,3,0.3,
MP,MURX,3,10000,
MP,UVID,3,6f80b055-9d3f-4403-963f-44a1a2013469
MP,UMID,3,59002a79-71c2-428e-906b-55d7dbee100e

Temperature = 'TEMP' ! Temperature
MP,DENS,4,7850,	! kg m^-3
MP,ALPX,4,1.2e-05,	! C^-1
MP,C,4,434,	! J kg^-1 C^-1
MP,KXX,4,60.5,	! W m^-1 C^-1
MP,RSVX,4,1.7e-07,	! kg m^3 A^-2 s^-3
MP,EX,4,200000000000,	! Pa
MP,NUXY,4,0.3,
MP,MURX,4,10000,
MP,UVID,4,6f80b055-9d3f-4403-963f-44a1a2013469
MP,UMID,4,59002a79-71c2-428e-906b-55d7dbee100e

Temperature = 'TEMP' ! Temperature
MP,DENS,5,7850,	! kg m^-3
MP,ALPX,5,1.2e-05,	! C^-1
MP,C,5,434,	! J kg^-1 C^-1
MP,KXX,5,60.5,	! W m^-1 C^-1
MP,RSVX,5,1.7e-07,	! kg m^3 A^-2 s^-3
MP,EX,5,200000000000,	! Pa
MP,NUXY,5,0.3,
MP,MURX,5,10000,
MP,UVID,5,6f80b055-9d3f-4403-963f-44a1a2013469
MP,UMID,5,59002a79-71c2-428e-906b-55d7dbee100e

Temperature = 'TEMP' ! Temperature
MP,DENS,6,7850,	! kg m^-3
MP,ALPX,6,1.2e-05,	! C^-1
MP,C,6,434,	! J kg^-1 C^-1
MP,KXX,6,60.5,	! W m^-1 C^-1
MP,RSVX,6,1.7e-07,	! kg m^3 A^-2 s^-3
MP,EX,6,200000000000,	! Pa
MP,NUXY,6,0.3,
MP,MURX,6,10000,
MP,UVID,6,6f80b055-9d3f-4403-963f-44a1a2013469
MP,UMID,6,59002a79-71c2-428e-906b-55d7dbee100e

Temperature = 'TEMP' ! Temperature
MP,DENS,7,7850,	! kg m^-3
MP,ALPX,7,1.2e-05,	! C^-1
MP,C,7,434,	! J kg^-1 C^-1
MP,KXX,7,60.5,	! W m^-1 C^-1
MP,RSVX,7,1.7e-07,	! kg m^3 A^-2 s^-3
MP,EX,7,200000000000,	! Pa
MP,NUXY,7,0.3,
MP,MURX,7,10000,
MP,UVID,7,6f80b055-9d3f-4403-963f-44a1a2013469
MP,UMID,7,59002a79-71c2-428e-906b-55d7dbee100e

Temperature = 'TEMP' ! Temperature
MP,DENS,8,7850,	! kg m^-3
MP,ALPX,8,1.2e-05,	! C^-1
MP,C,8,434,	! J kg^-1 C^-1
MP,KXX,8,60.5,	! W m^-1 C^-1
MP,RSVX,8,1.7e-07,	! kg m^3 A^-2 s^-3
MP,EX,8,200000000000,	! Pa
MP,NUXY,8,0.3,
MP,MURX,8,10000,
MP,UVID,8,6f80b055-9d3f-4403-963f-44a1a2013469
MP,UMID,8,59002a79-71c2-428e-906b-55d7dbee100e

Temperature = 'TEMP' ! Temperature
MP,DENS,9,7850,	! kg m^-3
MP,ALPX,9,1.2e-05,	! C^-1
MP,C,9,434,	! J kg^-1 C^-1
MP,KXX,9,60.5,	! W m^-1 C^-1
MP,RSVX,9,1.7e-07,	! kg m^3 A^-2 s^-3
MP,EX,9,200000000000,	! Pa
MP,NUXY,9,0.3,
MP,MURX,9,10000,
MP,UVID,9,6f80b055-9d3f-4403-963f-44a1a2013469
MP,UMID,9,59002a79-71c2-428e-906b-55d7dbee100e

Temperature = 'TEMP' ! Temperature
MP,DENS,10,7850,	! kg m^-3
MP,ALPX,10,1.2e-05,	! C^-1
MP,C,10,434,	! J kg^-1 C^-1
MP,KXX,10,60.5,	! W m^-1 C^-1
MP,RSVX,10,1.7e-07,	! kg m^3 A^-2 s^-3
MP,EX,10,200000000000,	! Pa
MP,NUXY,10,0.3,
MP,MURX,10,10000,
MP,UVID,10,6f80b055-9d3f-4403-963f-44a1a2013469
MP,UMID,10,59002a79-71c2-428e-906b-55d7dbee100e

Temperature = 'TEMP' ! Temperature
MP,DENS,11,7850,	! kg m^-3
MP,ALPX,11,1.2e-05,	! C^-1
MP,C,11,434,	! J kg^-1 C^-1
MP,KXX,11,60.5,	! W m^-1 C^-1
MP,RSVX,11,1.7e-07,	! kg m^3 A^-2 s^-3
MP,EX,11,200000000000,	! Pa
MP,NUXY,11,0.3,
MP,MURX,11,10000,
MP,UVID,11,6f80b055-9d3f-4403-963f-44a1a2013469
MP,UMID,11,59002a79-71c2-428e-906b-55d7dbee100e

Temperature = 'TEMP' ! Temperature
MP,DENS,12,7850,	! kg m^-3
MP,ALPX,12,1.2e-05,	! C^-1
MP,C,12,434,	! J kg^-1 C^-1
MP,KXX,12,60.5,	! W m^-1 C^-1
MP,RSVX,12,1.7e-07,	! kg m^3 A^-2 s^-3
MP,EX,12,200000000000,	! Pa
MP,NUXY,12,0.3,
MP,MURX,12,10000,
MP,UVID,12,6f80b055-9d3f-4403-963f-44a1a2013469
MP,UMID,12,59002a79-71c2-428e-906b-55d7dbee100e

Temperature = 'TEMP' ! Temperature
MP,DENS,13,7850,	! kg m^-3
MP,ALPX,13,1.2e-05,	! C^-1
MP,C,13,434,	! J kg^-1 C^-1
MP,KXX,13,60.5,	! W m^-1 C^-1
MP,RSVX,13,1.7e-07,	! kg m^3 A^-2 s^-3
MP,EX,13,200000000000,	! Pa
MP,NUXY,13,0.3,
MP,MURX,13,10000,
MP,UVID,13,6f80b055-9d3f-4403-963f-44a1a2013469
MP,UMID,13,59002a79-71c2-428e-906b-55d7dbee100e

Temperature = 'TEMP' ! Temperature
MP,DENS,14,7850,	! kg m^-3
MP,ALPX,14,1.2e-05,	! C^-1
MP,C,14,434,	! J kg^-1 C^-1
MP,KXX,14,60.5,	! W m^-1 C^-1
MP,RSVX,14,1.7e-07,	! kg m^3 A^-2 s^-3
MP,EX,14,200000000000,	! Pa
MP,NUXY,14,0.3,
MP,MURX,14,10000,
MP,UVID,14,6f80b055-9d3f-4403-963f-44a1a2013469
MP,UMID,14,59002a79-71c2-428e-906b-55d7dbee100e

Temperature = 'TEMP' ! Temperature
MP,DENS,15,7850,	! kg m^-3
MP,ALPX,15,1.2e-05,	! C^-1
MP,C,15,434,	! J kg^-1 C^-1
MP,KXX,15,60.5,	! W m^-1 C^-1
MP,RSVX,15,1.7e-07,	! kg m^3 A^-2 s^-3
MP,EX,15,200000000000,	! Pa
MP,NUXY,15,0.3,
MP,MURX,15,10000,
MP,UVID,15,6f80b055-9d3f-4403-963f-44a1a2013469
MP,UMID,15,59002a79-71c2-428e-906b-55d7dbee100e

Temperature = 'TEMP' ! Temperature
MP,DENS,16,7850,	! kg m^-3
MP,ALPX,16,1.2e-05,	! C^-1
MP,C,16,434,	! J kg^-1 C^-1
MP,KXX,16,60.5,	! W m^-1 C^-1
MP,RSVX,16,1.7e-07,	! kg m^3 A^-2 s^-3
MP,EX,16,200000000000,	! Pa
MP,NUXY,16,0.3,
MP,MURX,16,10000,
MP,UVID,16,6f80b055-9d3f-4403-963f-44a1a2013469
MP,UMID,16,59002a79-71c2-428e-906b-55d7dbee100e

Temperature = 'TEMP' ! Temperature
MP,DENS,17,7850,	! kg m^-3
MP,ALPX,17,1.2e-05,	! C^-1
MP,C,17,434,	! J kg^-1 C^-1
MP,KXX,17,60.5,	! W m^-1 C^-1
MP,RSVX,17,1.7e-07,	! kg m^3 A^-2 s^-3
MP,EX,17,200000000000,	! Pa
MP,NUXY,17,0.3,
MP,MURX,17,10000,
MP,UVID,17,6f80b055-9d3f-4403-963f-44a1a2013469
MP,UMID,17,59002a79-71c2-428e-906b-55d7dbee100e

Temperature = 'TEMP' ! Temperature
MP,DENS,18,7850,	! kg m^-3
MP,ALPX,18,1.2e-05,	! C^-1
MP,C,18,434,	! J kg^-1 C^-1
MP,KXX,18,60.5,	! W m^-1 C^-1
MP,RSVX,18,1.7e-07,	! kg m^3 A^-2 s^-3
MP,EX,18,200000000000,	! Pa
MP,NUXY,18,0.3,
MP,MURX,18,10000,
MP,UVID,18,6f80b055-9d3f-4403-963f-44a1a2013469
MP,UMID,18,59002a79-71c2-428e-906b-55d7dbee100e

Temperature = 'TEMP' ! Temperature
MP,DENS,19,7850,	! kg m^-3
MP,ALPX,19,1.2e-05,	! C^-1
MP,C,19,434,	! J kg^-1 C^-1
MP,KXX,19,60.5,	! W m^-1 C^-1
MP,RSVX,19,1.7e-07,	! kg m^3 A^-2 s^-3
MP,EX,19,200000000000,	! Pa
MP,NUXY,19,0.3,
MP,MURX,19,10000,
MP,UVID,19,6f80b055-9d3f-4403-963f-44a1a2013469
MP,UMID,19,59002a79-71c2-428e-906b-55d7dbee100e

Temperature = 'TEMP' ! Temperature
MP,DENS,20,7850,	! kg m^-3
MP,ALPX,20,1.2e-05,	! C^-1
MP,C,20,434,	! J kg^-1 C^-1
MP,KXX,20,60.5,	! W m^-1 C^-1
MP,RSVX,20,1.7e-07,	! kg m^3 A^-2 s^-3
MP,EX,20,200000000000,	! Pa
MP,NUXY,20,0.3,
MP,MURX,20,10000,
MP,UVID,20,6f80b055-9d3f-4403-963f-44a1a2013469
MP,UMID,20,59002a79-71c2-428e-906b-55d7dbee100e

Temperature = 'TEMP' ! Temperature
MP,DENS,21,7850,	! kg m^-3
MP,ALPX,21,1.2e-05,	! C^-1
MP,C,21,434,	! J kg^-1 C^-1
MP,KXX,21,60.5,	! W m^-1 C^-1
MP,RSVX,21,1.7e-07,	! kg m^3 A^-2 s^-3
MP,EX,21,200000000000,	! Pa
MP,NUXY,21,0.3,
MP,MURX,21,10000,
MP,UVID,21,6f80b055-9d3f-4403-963f-44a1a2013469
MP,UMID,21,59002a79-71c2-428e-906b-55d7dbee100e

Temperature = 'TEMP' ! Temperature
MP,DENS,22,7850,	! kg m^-3
MP,ALPX,22,1.2e-05,	! C^-1
MP,C,22,434,	! J kg^-1 C^-1
MP,KXX,22,60.5,	! W m^-1 C^-1
MP,RSVX,22,1.7e-07,	! kg m^3 A^-2 s^-3
MP,EX,22,200000000000,	! Pa
MP,NUXY,22,0.3,
MP,MURX,22,10000,
MP,UVID,22,6f80b055-9d3f-4403-963f-44a1a2013469
MP,UMID,22,59002a79-71c2-428e-906b-55d7dbee100e

Temperature = 'TEMP' ! Temperature
MP,DENS,23,7850,	! kg m^-3
MP,ALPX,23,1.2e-05,	! C^-1
MP,C,23,434,	! J kg^-1 C^-1
MP,KXX,23,60.5,	! W m^-1 C^-1
MP,RSVX,23,1.7e-07,	! kg m^3 A^-2 s^-3
MP,EX,23,200000000000,	! Pa
MP,NUXY,23,0.3,
MP,MURX,23,10000,
MP,UVID,23,6f80b055-9d3f-4403-963f-44a1a2013469
MP,UMID,23,59002a79-71c2-428e-906b-55d7dbee100e

Temperature = 'TEMP' ! Temperature
MP,DENS,24,7850,	! kg m^-3
MP,ALPX,24,1.2e-05,	! C^-1
MP,C,24,434,	! J kg^-1 C^-1
MP,KXX,24,60.5,	! W m^-1 C^-1
MP,RSVX,24,1.7e-07,	! kg m^3 A^-2 s^-3
MP,EX,24,200000000000,	! Pa
MP,NUXY,24,0.3,
MP,MURX,24,10000,
MP,UVID,24,6f80b055-9d3f-4403-963f-44a1a2013469
MP,UMID,24,59002a79-71c2-428e-906b-55d7dbee100e

Temperature = 'TEMP' ! Temperature
MP,DENS,25,7850,	! kg m^-3
MP,ALPX,25,1.2e-05,	! C^-1
MP,C,25,434,	! J kg^-1 C^-1
MP,KXX,25,60.5,	! W m^-1 C^-1
MP,RSVX,25,1.7e-07,	! kg m^3 A^-2 s^-3
MP,EX,25,200000000000,	! Pa
MP,NUXY,25,0.3,
MP,MURX,25,10000,
MP,UVID,25,6f80b055-9d3f-4403-963f-44a1a2013469
MP,UMID,25,59002a79-71c2-428e-906b-55d7dbee100e

Temperature = 'TEMP' ! Temperature
MP,DENS,26,7850,	! kg m^-3
MP,ALPX,26,1.2e-05,	! C^-1
MP,C,26,434,	! J kg^-1 C^-1
MP,KXX,26,60.5,	! W m^-1 C^-1
MP,RSVX,26,1.7e-07,	! kg m^3 A^-2 s^-3
MP,EX,26,200000000000,	! Pa
MP,NUXY,26,0.3,
MP,MURX,26,10000,
MP,UVID,26,6f80b055-9d3f-4403-963f-44a1a2013469
MP,UMID,26,59002a79-71c2-428e-906b-55d7dbee100e

Temperature = 'TEMP' ! Temperature
MP,DENS,27,7850,	! kg m^-3
MP,ALPX,27,1.2e-05,	! C^-1
MP,C,27,434,	! J kg^-1 C^-1
MP,KXX,27,60.5,	! W m^-1 C^-1
MP,RSVX,27,1.7e-07,	! kg m^3 A^-2 s^-3
MP,EX,27,200000000000,	! Pa
MP,NUXY,27,0.3,
MP,MURX,27,10000,
MP,UVID,27,6f80b055-9d3f-4403-963f-44a1a2013469
MP,UMID,27,59002a79-71c2-428e-906b-55d7dbee100e

Temperature = 'TEMP' ! Temperature
MP,DENS,28,7850,	! kg m^-3
MP,ALPX,28,1.2e-05,	! C^-1
MP,C,28,434,	! J kg^-1 C^-1
MP,KXX,28,60.5,	! W m^-1 C^-1
MP,RSVX,28,1.7e-07,	! kg m^3 A^-2 s^-3
MP,EX,28,200000000000,	! Pa
MP,NUXY,28,0.3,
MP,MURX,28,10000,
MP,UVID,28,6f80b055-9d3f-4403-963f-44a1a2013469
MP,UMID,28,59002a79-71c2-428e-906b-55d7dbee100e

Temperature = 'TEMP' ! Temperature
MP,DENS,29,7850,	! kg m^-3
MP,ALPX,29,1.2e-05,	! C^-1
MP,C,29,434,	! J kg^-1 C^-1
MP,KXX,29,60.5,	! W m^-1 C^-1
MP,RSVX,29,1.7e-07,	! kg m^3 A^-2 s^-3
MP,EX,29,200000000000,	! Pa
MP,NUXY,29,0.3,
MP,MURX,29,10000,
MP,UVID,29,6f80b055-9d3f-4403-963f-44a1a2013469
MP,UMID,29,59002a79-71c2-428e-906b-55d7dbee100e

Temperature = 'TEMP' ! Temperature
MP,DENS,30,7850,	! kg m^-3
MP,ALPX,30,1.2e-05,	! C^-1
MP,C,30,434,	! J kg^-1 C^-1
MP,KXX,30,60.5,	! W m^-1 C^-1
MP,RSVX,30,1.7e-07,	! kg m^3 A^-2 s^-3
MP,EX,30,200000000000,	! Pa
MP,NUXY,30,0.3,
MP,MURX,30,10000,
MP,UVID,30,6f80b055-9d3f-4403-963f-44a1a2013469
MP,UMID,30,59002a79-71c2-428e-906b-55d7dbee100e

Temperature = 'TEMP' ! Temperature
MP,DENS,31,7850,	! kg m^-3
MP,ALPX,31,1.2e-05,	! C^-1
MP,C,31,434,	! J kg^-1 C^-1
MP,KXX,31,60.5,	! W m^-1 C^-1
MP,RSVX,31,1.7e-07,	! kg m^3 A^-2 s^-3
MP,EX,31,200000000000,	! Pa
MP,NUXY,31,0.3,
MP,MURX,31,10000,
MP,UVID,31,6f80b055-9d3f-4403-963f-44a1a2013469
MP,UMID,31,59002a79-71c2-428e-906b-55d7dbee100e

Temperature = 'TEMP' ! Temperature
MP,DENS,32,7850,	! kg m^-3
MP,ALPX,32,1.2e-05,	! C^-1
MP,C,32,434,	! J kg^-1 C^-1
MP,KXX,32,60.5,	! W m^-1 C^-1
MP,RSVX,32,1.7e-07,	! kg m^3 A^-2 s^-3
MP,EX,32,200000000000,	! Pa
MP,NUXY,32,0.3,
MP,MURX,32,10000,
MP,UVID,32,6f80b055-9d3f-4403-963f-44a1a2013469
MP,UMID,32,59002a79-71c2-428e-906b-55d7dbee100e

Temperature = 'TEMP' ! Temperature
MP,DENS,33,7850,	! kg m^-3
MP,ALPX,33,1.2e-05,	! C^-1
MP,C,33,434,	! J kg^-1 C^-1
MP,KXX,33,60.5,	! W m^-1 C^-1
MP,RSVX,33,1.7e-07,	! kg m^3 A^-2 s^-3
MP,EX,33,200000000000,	! Pa
MP,NUXY,33,0.3,
MP,MURX,33,10000,
MP,UVID,33,6f80b055-9d3f-4403-963f-44a1a2013469
MP,UMID,33,59002a79-71c2-428e-906b-55d7dbee100e

Temperature = 'TEMP' ! Temperature
MP,DENS,34,7850,	! kg m^-3
MP,ALPX,34,1.2e-05,	! C^-1
MP,C,34,434,	! J kg^-1 C^-1
MP,KXX,34,60.5,	! W m^-1 C^-1
MP,RSVX,34,1.7e-07,	! kg m^3 A^-2 s^-3
MP,EX,34,200000000000,	! Pa
MP,NUXY,34,0.3,
MP,MURX,34,10000,
MP,UVID,34,6f80b055-9d3f-4403-963f-44a1a2013469
MP,UMID,34,59002a79-71c2-428e-906b-55d7dbee100e

Temperature = 'TEMP' ! Temperature
MP,DENS,35,7850,	! kg m^-3
MP,ALPX,35,1.2e-05,	! C^-1
MP,C,35,434,	! J kg^-1 C^-1
MP,KXX,35,60.5,	! W m^-1 C^-1
MP,RSVX,35,1.7e-07,	! kg m^3 A^-2 s^-3
MP,EX,35,200000000000,	! Pa
MP,NUXY,35,0.3,
MP,MURX,35,10000,
MP,UVID,35,6f80b055-9d3f-4403-963f-44a1a2013469
MP,UMID,35,59002a79-71c2-428e-906b-55d7dbee100e

Temperature = 'TEMP' ! Temperature
MP,DENS,36,7850,	! kg m^-3
MP,ALPX,36,1.2e-05,	! C^-1
MP,C,36,434,	! J kg^-1 C^-1
MP,KXX,36,60.5,	! W m^-1 C^-1
MP,RSVX,36,1.7e-07,	! kg m^3 A^-2 s^-3
MP,EX,36,200000000000,	! Pa
MP,NUXY,36,0.3,
MP,MURX,36,10000,
MP,UVID,36,6f80b055-9d3f-4403-963f-44a1a2013469
MP,UMID,36,59002a79-71c2-428e-906b-55d7dbee100e

Temperature = 'TEMP' ! Temperature
MP,DENS,37,7850,	! kg m^-3
MP,ALPX,37,1.2e-05,	! C^-1
MP,C,37,434,	! J kg^-1 C^-1
MP,KXX,37,60.5,	! W m^-1 C^-1
MP,RSVX,37,1.7e-07,	! kg m^3 A^-2 s^-3
MP,EX,37,200000000000,	! Pa
MP,NUXY,37,0.3,
MP,MURX,37,10000,
MP,UVID,37,6f80b055-9d3f-4403-963f-44a1a2013469
MP,UMID,37,59002a79-71c2-428e-906b-55d7dbee100e

Temperature = 'TEMP' ! Temperature
MP,DENS,38,7850,	! kg m^-3
MP,ALPX,38,1.2e-05,	! C^-1
MP,C,38,434,	! J kg^-1 C^-1
MP,KXX,38,60.5,	! W m^-1 C^-1
MP,RSVX,38,1.7e-07,	! kg m^3 A^-2 s^-3
MP,EX,38,200000000000,	! Pa
MP,NUXY,38,0.3,
MP,MURX,38,10000,
MP,UVID,38,6f80b055-9d3f-4403-963f-44a1a2013469
MP,UMID,38,59002a79-71c2-428e-906b-55d7dbee100e

Temperature = 'TEMP' ! Temperature
MP,DENS,39,7850,	! kg m^-3
MP,ALPX,39,1.2e-05,	! C^-1
MP,C,39,434,	! J kg^-1 C^-1
MP,KXX,39,60.5,	! W m^-1 C^-1
MP,RSVX,39,1.7e-07,	! kg m^3 A^-2 s^-3
MP,EX,39,200000000000,	! Pa
MP,NUXY,39,0.3,
MP,MURX,39,10000,
MP,UVID,39,6f80b055-9d3f-4403-963f-44a1a2013469
MP,UMID,39,59002a79-71c2-428e-906b-55d7dbee100e

Temperature = 'TEMP' ! Temperature
MP,DENS,40,7850,	! kg m^-3
MP,ALPX,40,1.2e-05,	! C^-1
MP,C,40,434,	! J kg^-1 C^-1
MP,KXX,40,60.5,	! W m^-1 C^-1
MP,RSVX,40,1.7e-07,	! kg m^3 A^-2 s^-3
MP,EX,40,200000000000,	! Pa
MP,NUXY,40,0.3,
MP,MURX,40,10000,
MP,UVID,40,6f80b055-9d3f-4403-963f-44a1a2013469
MP,UMID,40,59002a79-71c2-428e-906b-55d7dbee100e

Temperature = 'TEMP' ! Temperature
MP,DENS,41,7850,	! kg m^-3
MP,ALPX,41,1.2e-05,	! C^-1
MP,C,41,434,	! J kg^-1 C^-1
MP,KXX,41,60.5,	! W m^-1 C^-1
MP,RSVX,41,1.7e-07,	! kg m^3 A^-2 s^-3
MP,EX,41,200000000000,	! Pa
MP,NUXY,41,0.3,
MP,MURX,41,10000,
MP,UVID,41,6f80b055-9d3f-4403-963f-44a1a2013469
MP,UMID,41,59002a79-71c2-428e-906b-55d7dbee100e

Temperature = 'TEMP' ! Temperature
MP,DENS,42,7850,	! kg m^-3
MP,ALPX,42,1.2e-05,	! C^-1
MP,C,42,434,	! J kg^-1 C^-1
MP,KXX,42,60.5,	! W m^-1 C^-1
MP,RSVX,42,1.7e-07,	! kg m^3 A^-2 s^-3
MP,EX,42,200000000000,	! Pa
MP,NUXY,42,0.3,
MP,MURX,42,10000,
MP,UVID,42,6f80b055-9d3f-4403-963f-44a1a2013469
MP,UMID,42,59002a79-71c2-428e-906b-55d7dbee100e

Temperature = 'TEMP' ! Temperature
MP,DENS,43,7850,	! kg m^-3
MP,ALPX,43,1.2e-05,	! C^-1
MP,C,43,434,	! J kg^-1 C^-1
MP,KXX,43,60.5,	! W m^-1 C^-1
MP,RSVX,43,1.7e-07,	! kg m^3 A^-2 s^-3
MP,EX,43,200000000000,	! Pa
MP,NUXY,43,0.3,
MP,MURX,43,10000,
MP,UVID,43,6f80b055-9d3f-4403-963f-44a1a2013469
MP,UMID,43,59002a79-71c2-428e-906b-55d7dbee100e

Temperature = 'TEMP' ! Temperature
MP,DENS,44,7850,	! kg m^-3
MP,ALPX,44,1.2e-05,	! C^-1
MP,C,44,434,	! J kg^-1 C^-1
MP,KXX,44,60.5,	! W m^-1 C^-1
MP,RSVX,44,1.7e-07,	! kg m^3 A^-2 s^-3
MP,EX,44,200000000000,	! Pa
MP,NUXY,44,0.3,
MP,MURX,44,10000,
MP,UVID,44,6f80b055-9d3f-4403-963f-44a1a2013469
MP,UMID,44,59002a79-71c2-428e-906b-55d7dbee100e

Temperature = 'TEMP' ! Temperature
MP,DENS,45,7850,	! kg m^-3
MP,ALPX,45,1.2e-05,	! C^-1
MP,C,45,434,	! J kg^-1 C^-1
MP,KXX,45,60.5,	! W m^-1 C^-1
MP,RSVX,45,1.7e-07,	! kg m^3 A^-2 s^-3
MP,EX,45,200000000000,	! Pa
MP,NUXY,45,0.3,
MP,MURX,45,10000,
MP,UVID,45,6f80b055-9d3f-4403-963f-44a1a2013469
MP,UMID,45,59002a79-71c2-428e-906b-55d7dbee100e

Temperature = 'TEMP' ! Temperature
MP,DENS,46,7850,	! kg m^-3
MP,ALPX,46,1.2e-05,	! C^-1
MP,C,46,434,	! J kg^-1 C^-1
MP,KXX,46,60.5,	! W m^-1 C^-1
MP,RSVX,46,1.7e-07,	! kg m^3 A^-2 s^-3
MP,EX,46,200000000000,	! Pa
MP,NUXY,46,0.3,
MP,MURX,46,10000,
MP,UVID,46,6f80b055-9d3f-4403-963f-44a1a2013469
MP,UMID,46,59002a79-71c2-428e-906b-55d7dbee100e

Temperature = 'TEMP' ! Temperature
MP,DENS,47,7850,	! kg m^-3
MP,ALPX,47,1.2e-05,	! C^-1
MP,C,47,434,	! J kg^-1 C^-1
MP,KXX,47,60.5,	! W m^-1 C^-1
MP,RSVX,47,1.7e-07,	! kg m^3 A^-2 s^-3
MP,EX,47,200000000000,	! Pa
MP,NUXY,47,0.3,
MP,MURX,47,10000,
MP,UVID,47,6f80b055-9d3f-4403-963f-44a1a2013469
MP,UMID,47,59002a79-71c2-428e-906b-55d7dbee100e

Temperature = 'TEMP' ! Temperature
MP,DENS,48,7850,	! kg m^-3
MP,ALPX,48,1.2e-05,	! C^-1
MP,C,48,434,	! J kg^-1 C^-1
MP,KXX,48,60.5,	! W m^-1 C^-1
MP,RSVX,48,1.7e-07,	! kg m^3 A^-2 s^-3
MP,EX,48,200000000000,	! Pa
MP,NUXY,48,0.3,
MP,MURX,48,10000,
MP,UVID,48,6f80b055-9d3f-4403-963f-44a1a2013469
MP,UMID,48,59002a79-71c2-428e-906b-55d7dbee100e

Temperature = 'TEMP' ! Temperature
MP,DENS,49,7850,	! kg m^-3
MP,ALPX,49,1.2e-05,	! C^-1
MP,C,49,434,	! J kg^-1 C^-1
MP,KXX,49,60.5,	! W m^-1 C^-1
MP,RSVX,49,1.7e-07,	! kg m^3 A^-2 s^-3
MP,EX,49,200000000000,	! Pa
MP,NUXY,49,0.3,
MP,MURX,49,10000,
MP,UVID,49,6f80b055-9d3f-4403-963f-44a1a2013469
MP,UMID,49,59002a79-71c2-428e-906b-55d7dbee100e

Temperature = 'TEMP' ! Temperature
MP,DENS,50,7850,	! kg m^-3
MP,ALPX,50,1.2e-05,	! C^-1
MP,C,50,434,	! J kg^-1 C^-1
MP,KXX,50,60.5,	! W m^-1 C^-1
MP,RSVX,50,1.7e-07,	! kg m^3 A^-2 s^-3
MP,EX,50,200000000000,	! Pa
MP,NUXY,50,0.3,
MP,MURX,50,10000,
MP,UVID,50,6f80b055-9d3f-4403-963f-44a1a2013469
MP,UMID,50,59002a79-71c2-428e-906b-55d7dbee100e

Temperature = 'TEMP' ! Temperature
MP,DENS,51,7850,	! kg m^-3
MP,ALPX,51,1.2e-05,	! C^-1
MP,C,51,434,	! J kg^-1 C^-1
MP,KXX,51,60.5,	! W m^-1 C^-1
MP,RSVX,51,1.7e-07,	! kg m^3 A^-2 s^-3
MP,EX,51,200000000000,	! Pa
MP,NUXY,51,0.3,
MP,MURX,51,10000,
MP,UVID,51,6f80b055-9d3f-4403-963f-44a1a2013469
MP,UMID,51,59002a79-71c2-428e-906b-55d7dbee100e

Temperature = 'TEMP' ! Temperature
MP,DENS,52,7850,	! kg m^-3
MP,ALPX,52,1.2e-05,	! C^-1
MP,C,52,434,	! J kg^-1 C^-1
MP,KXX,52,60.5,	! W m^-1 C^-1
MP,RSVX,52,1.7e-07,	! kg m^3 A^-2 s^-3
MP,EX,52,200000000000,	! Pa
MP,NUXY,52,0.3,
MP,MURX,52,10000,
MP,UVID,52,6f80b055-9d3f-4403-963f-44a1a2013469
MP,UMID,52,59002a79-71c2-428e-906b-55d7dbee100e

Temperature = 'TEMP' ! Temperature
MP,DENS,53,7850,	! kg m^-3
MP,ALPX,53,1.2e-05,	! C^-1
MP,C,53,434,	! J kg^-1 C^-1
MP,KXX,53,60.5,	! W m^-1 C^-1
MP,RSVX,53,1.7e-07,	! kg m^3 A^-2 s^-3
MP,EX,53,200000000000,	! Pa
MP,NUXY,53,0.3,
MP,MURX,53,10000,
MP,UVID,53,6f80b055-9d3f-4403-963f-44a1a2013469
MP,UMID,53,59002a79-71c2-428e-906b-55d7dbee100e

Temperature = 'TEMP' ! Temperature
MP,DENS,54,7850,	! kg m^-3
MP,ALPX,54,1.2e-05,	! C^-1
MP,C,54,434,	! J kg^-1 C^-1
MP,KXX,54,60.5,	! W m^-1 C^-1
MP,RSVX,54,1.7e-07,	! kg m^3 A^-2 s^-3
MP,EX,54,200000000000,	! Pa
MP,NUXY,54,0.3,
MP,MURX,54,10000,
MP,UVID,54,6f80b055-9d3f-4403-963f-44a1a2013469
MP,UMID,54,59002a79-71c2-428e-906b-55d7dbee100e

Temperature = 'TEMP' ! Temperature
MP,DENS,55,7850,	! kg m^-3
MP,ALPX,55,1.2e-05,	! C^-1
MP,C,55,434,	! J kg^-1 C^-1
MP,KXX,55,60.5,	! W m^-1 C^-1
MP,RSVX,55,1.7e-07,	! kg m^3 A^-2 s^-3
MP,EX,55,200000000000,	! Pa
MP,NUXY,55,0.3,
MP,MURX,55,10000,
MP,UVID,55,6f80b055-9d3f-4403-963f-44a1a2013469
MP,UMID,55,59002a79-71c2-428e-906b-55d7dbee100e

Temperature = 'TEMP' ! Temperature
MP,DENS,56,7850,	! kg m^-3
MP,ALPX,56,1.2e-05,	! C^-1
MP,C,56,434,	! J kg^-1 C^-1
MP,KXX,56,60.5,	! W m^-1 C^-1
MP,RSVX,56,1.7e-07,	! kg m^3 A^-2 s^-3
MP,EX,56,200000000000,	! Pa
MP,NUXY,56,0.3,
MP,MURX,56,10000,
MP,UVID,56,6f80b055-9d3f-4403-963f-44a1a2013469
MP,UMID,56,59002a79-71c2-428e-906b-55d7dbee100e

Temperature = 'TEMP' ! Temperature
MP,DENS,57,7850,	! kg m^-3
MP,ALPX,57,1.2e-05,	! C^-1
MP,C,57,434,	! J kg^-1 C^-1
MP,KXX,57,60.5,	! W m^-1 C^-1
MP,RSVX,57,1.7e-07,	! kg m^3 A^-2 s^-3
MP,EX,57,200000000000,	! Pa
MP,NUXY,57,0.3,
MP,MURX,57,10000,
MP,UVID,57,6f80b055-9d3f-4403-963f-44a1a2013469
MP,UMID,57,59002a79-71c2-428e-906b-55d7dbee100e

Temperature = 'TEMP' ! Temperature
MP,DENS,58,7850,	! kg m^-3
MP,ALPX,58,1.2e-05,	! C^-1
MP,C,58,434,	! J kg^-1 C^-1
MP,KXX,58,60.5,	! W m^-1 C^-1
MP,RSVX,58,1.7e-07,	! kg m^3 A^-2 s^-3
MP,EX,58,200000000000,	! Pa
MP,NUXY,58,0.3,
MP,MURX,58,10000,
MP,UVID,58,6f80b055-9d3f-4403-963f-44a1a2013469
MP,UMID,58,59002a79-71c2-428e-906b-55d7dbee100e

Temperature = 'TEMP' ! Temperature
MP,DENS,59,7850,	! kg m^-3
MP,ALPX,59,1.2e-05,	! C^-1
MP,C,59,434,	! J kg^-1 C^-1
MP,KXX,59,60.5,	! W m^-1 C^-1
MP,RSVX,59,1.7e-07,	! kg m^3 A^-2 s^-3
MP,EX,59,200000000000,	! Pa
MP,NUXY,59,0.3,
MP,MURX,59,10000,
MP,UVID,59,6f80b055-9d3f-4403-963f-44a1a2013469
MP,UMID,59,59002a79-71c2-428e-906b-55d7dbee100e

Temperature = 'TEMP' ! Temperature
MP,DENS,60,7850,	! kg m^-3
MP,ALPX,60,1.2e-05,	! C^-1
MP,C,60,434,	! J kg^-1 C^-1
MP,KXX,60,60.5,	! W m^-1 C^-1
MP,RSVX,60,1.7e-07,	! kg m^3 A^-2 s^-3
MP,EX,60,200000000000,	! Pa
MP,NUXY,60,0.3,
MP,MURX,60,10000,
MP,UVID,60,6f80b055-9d3f-4403-963f-44a1a2013469
MP,UMID,60,59002a79-71c2-428e-906b-55d7dbee100e

Temperature = 'TEMP' ! Temperature
MP,DENS,61,7850,	! kg m^-3
MP,ALPX,61,1.2e-05,	! C^-1
MP,C,61,434,	! J kg^-1 C^-1
MP,KXX,61,60.5,	! W m^-1 C^-1
MP,RSVX,61,1.7e-07,	! kg m^3 A^-2 s^-3
MP,EX,61,200000000000,	! Pa
MP,NUXY,61,0.3,
MP,MURX,61,10000,
MP,UVID,61,6f80b055-9d3f-4403-963f-44a1a2013469
MP,UMID,61,59002a79-71c2-428e-906b-55d7dbee100e

/wb,mat,end                !  done sending materials
/com,*********** Send Beam Properties ***********
SECTYPE,1,BEAM,CTUB
SECDATA,1.715,1.8
secoffset,cent

SECTYPE,2,BEAM,CTUB
SECDATA,1.715,1.8
secoffset,cent

SECTYPE,3,BEAM,CTUB
SECDATA,1.73,1.8
secoffset,cent

SECTYPE,4,BEAM,CTUB
SECDATA,1.74,1.8
secoffset,cent

SECTYPE,5,BEAM,CTUB
SECDATA,1.735,1.8
secoffset,cent

SECTYPE,6,BEAM,CTUB
SECDATA,1.73,1.8
secoffset,cent

SECTYPE,7,BEAM,CTUB
SECDATA,1.76,1.8
secoffset,cent

SECTYPE,8,BEAM,CTUB
SECDATA,1.745,1.8
secoffset,cent

SECTYPE,9,BEAM,CTUB
SECDATA,1.71,1.8
secoffset,cent

SECTYPE,10,BEAM,CTUB
SECDATA,1.71,1.8
secoffset,cent

SECTYPE,11,BEAM,CTUB
SECDATA,1.721,1.8
secoffset,cent

SECTYPE,12,BEAM,CTUB
SECDATA,1.73,1.8
secoffset,cent

SECTYPE,13,BEAM,CTUB
SECDATA,1.725,1.8
secoffset,cent

SECTYPE,14,BEAM,CTUB
SECDATA,1.721,1.8
secoffset,cent

SECTYPE,15,BEAM,CTUB
SECDATA,1.75,1.8
secoffset,cent

SECTYPE,16,BEAM,CTUB
SECDATA,1.735,1.8
secoffset,cent

SECTYPE,17,BEAM,CTUB
SECDATA,0.784,0.8
secoffset,cent

SECTYPE,18,BEAM,CTUB
SECDATA,0.588,0.6
secoffset,cent

SECTYPE,19,BEAM,CTUB
SECDATA,0.784,0.8
secoffset,cent

SECTYPE,20,BEAM,CTUB
SECDATA,1.76,1.8
secoffset,cent

SECTYPE,21,BEAM,CTUB
SECDATA,0.78,0.8
secoffset,cent

SECTYPE,22,BEAM,CTUB
SECDATA,0.588,0.6
secoffset,cent

SECTYPE,23,BEAM,CTUB
SECDATA,0.784,0.8
secoffset,cent

SECTYPE,24,BEAM,CTUB
SECDATA,0.588,0.6
secoffset,cent

SECTYPE,25,BEAM,CTUB
SECDATA,0.784,0.8
secoffset,cent

SECTYPE,26,BEAM,CTUB
SECDATA,0.588,0.6
secoffset,cent

SECTYPE,27,BEAM,CTUB
SECDATA,0.784,0.8
secoffset,cent

SECTYPE,28,BEAM,CTUB
SECDATA,0.588,0.6
secoffset,cent

SECTYPE,29,BEAM,CTUB
SECDATA,0.784,0.8
secoffset,cent

SECTYPE,30,BEAM,CTUB
SECDATA,0.588,0.6
secoffset,cent

SECTYPE,31,BEAM,CTUB
SECDATA,0.784,0.8
secoffset,cent

SECTYPE,32,BEAM,CTUB
SECDATA,0.588,0.6
secoffset,cent

SECTYPE,33,BEAM,CTUB
SECDATA,0.784,0.8
secoffset,cent

SECTYPE,34,BEAM,CTUB
SECDATA,0.588,0.6
secoffset,cent

SECTYPE,35,BEAM,CTUB
SECDATA,0.784,0.8
secoffset,cent

SECTYPE,36,BEAM,CTUB
SECDATA,0.77,0.8
secoffset,cent

SECTYPE,37,BEAM,CTUB
SECDATA,0.784,0.8
secoffset,cent

SECTYPE,38,BEAM,CTUB
SECDATA,0.784,0.8
secoffset,cent

SECTYPE,39,BEAM,CTUB
SECDATA,1.76,1.8
secoffset,cent

SECTYPE,40,BEAM,CTUB
SECDATA,1.75,1.8
secoffset,cent

SECTYPE,41,BEAM,CTUB
SECDATA,1.74,1.8
secoffset,cent

SECTYPE,42,BEAM,CTUB
SECDATA,1.735,1.8
secoffset,cent

SECTYPE,43,BEAM,CTUB
SECDATA,1.745,1.8
secoffset,cent

SECTYPE,44,BEAM,CTUB
SECDATA,1.71,1.8
secoffset,cent

SECTYPE,45,BEAM,CTUB
SECDATA,0.78,0.8
secoffset,cent

SECTYPE,46,BEAM,CTUB
SECDATA,0.78,0.8
secoffset,cent

SECTYPE,47,BEAM,CTUB
SECDATA,0.784,0.8
secoffset,cent

SECTYPE,48,BEAM,CTUB
SECDATA,0.78,0.8
secoffset,cent

SECTYPE,49,BEAM,CTUB
SECDATA,0.784,0.8
secoffset,cent

SECTYPE,50,BEAM,CTUB
SECDATA,0.78,0.8
secoffset,cent

SECTYPE,51,BEAM,CTUB
SECDATA,0.77,0.8
secoffset,cent

SECTYPE,52,BEAM,CTUB
SECDATA,0.78,0.8
secoffset,cent

SECTYPE,53,BEAM,CTUB
SECDATA,0.784,0.8
secoffset,cent

SECTYPE,54,BEAM,CTUB
SECDATA,0.784,0.8
secoffset,cent

SECTYPE,55,BEAM,CTUB
SECDATA,0.78,0.8
secoffset,cent

SECTYPE,56,BEAM,CTUB
SECDATA,0.784,0.8
secoffset,cent

SECTYPE,57,BEAM,CTUB
SECDATA,0.78,0.8
secoffset,cent

SECTYPE,58,BEAM,CTUB
SECDATA,0.784,0.8
secoffset,cent

SECTYPE,59,BEAM,CTUB
SECDATA,0.78,0.8
secoffset,cent

SECTYPE,60,BEAM,CTUB
SECDATA,0.77,0.8
secoffset,cent

SECTYPE,61,BEAM,CTUB
SECDATA,0.77,0.8
secoffset,cent

!************************* Model Summary ********************
!Line Body,	Structural Steel,	matid,	1
!Line Body,	Structural Steel,	matid,	2
!Line Body,	Structural Steel,	matid,	3
!Line Body,	Structural Steel,	matid,	4
!Line Body,	Structural Steel,	matid,	5
!Line Body,	Structural Steel,	matid,	6
!Line Body,	Structural Steel,	matid,	7
!Line Body,	Structural Steel,	matid,	8
!Line Body,	Structural Steel,	matid,	9
!Line Body,	Structural Steel,	matid,	10
!Line Body,	Structural Steel,	matid,	11
!Line Body,	Structural Steel,	matid,	12
!Line Body,	Structural Steel,	matid,	13
!Line Body,	Structural Steel,	matid,	14
!Line Body,	Structural Steel,	matid,	15
!Line Body,	Structural Steel,	matid,	16
!Line Body,	Structural Steel,	matid,	17
!Line Body,	Structural Steel,	matid,	18
!Line Body,	Structural Steel,	matid,	19
!Line Body,	Structural Steel,	matid,	20
! ... 41 like lines cut
!************************* End Model Summary ********************
! get the diagonal of the bounding box. Needed later for other things
*get,_xmin,node,,mnloc,x
*get,_ymin,node,,mnloc,y
*get,_zmin,node,,mnloc,z
*get,_xmax,node,,mxloc,x
*get,_ymax,node,,mxloc,y
*get,_zmax,node,,mxloc,z
_ASMDIAG=(_xmax-_xmin)*(_xmax-_xmin)+(_ymax-_ymin)*(_ymax-_ymin)+(_zmax-_zmin)*(_zmax-_zmin)
_ASMDIAG=SQRT(_ASMDIAG)
/wb,contact,start          !  starting to send contact
/wb,contact,end            !  done creating contacts
/golist
/wb,load,start             !  starting to send loads
/com,******* Constant Zero Displacement X *******
CMBLOCK,_DISPZEROUX,NODE,        8
(8i10)
         1       115       235       544       565      -573      1021     -1027
cmsel,s,_DISPZEROUX
d,all,ux,0
nsel,all
/com,******* Constant Zero Displacement Y *******
CMBLOCK,_DISPZEROUY,NODE,        8
(8i10)
         1       115       235       544       565      -573      1021     -1027
cmsel,s,_DISPZEROUY
d,all,uy,0
nsel,all
/com,******* Constant Zero Displacement Z *******
CMBLOCK,_DISPZEROUZ,NODE,        8
(8i10)
         1       115       235       544       565      -573      1021     -1027
cmsel,s,_DISPZEROUZ
d,all,uz,0
nsel,all
/gst,on,on
fini
*get,_numnode,node,0,count
*get,_numelem,elem,0,count
*get, _MAXELEMNUM, elem, 0, NUM, MAX
*get, _MAXNODENUM, node, 0, NUM, MAX
*get, _MAXELEMTYPE, etyp, 0, NUM, MAX
*get, _MAXREALCONST, rcon, 0, NUM, MAX
/go
/wb,load,end               !  done creating loads
/com,--- Number of total nodes = %_numnode%
/com,--- Number of contact elements = 0
/com,--- Number of spring elements = 0
/com,--- Number of bearing elements = 0
/com,--- Number of solid elements = 1109
/com,--- Number of condensed parts = 0
/com,--- Number of total elements = %_numelem%
*get,_wallbsol,active,,time,wall
/solu
antype,2                   ! modal analysis
_thickRatio=  0     ! Ratio of thick parts in the model
thexpand,off     ! ignore thermal strains
modopt,lanb,10
outres,erase
outres,all,none
outres,nsol,all
outres,nload,all,
/nopr
esel,s,type,,1
esel,a,type,,2,61
cm,_elmisc,elem
esel,all
/gopr
outres,misc,all,_elmisc
mxpand,,,,yes,,no             ! expand requested element results, but not write them to file.mode
dmpopt,esav,no
dmpopt,emat,no
dmpopt,full,no
! *********** WB SOLVE COMMAND ***********
! check interactive state
*get,ANSINTER_,active,,int
*if,ANSINTER_,ne,0,then
/eof
*endif
solve
/com *************** Write FE CONNECTORS ********* 
CEWRITE,file,ce,,INTE
*get,_nmodalsolproc,active,0,numcpu
fini
/nopr
*get,_numnode,node,0,count
*get,_numelem,elem,0,count
*get, _MAXELEMNUM, elem, 0, NUM, MAX
*get, _MAXNODENUM, node, 0, NUM, MAX,,,INTERNAL
*get, _MAXELEMTYPE, etyp, 0, NUM, MAX
*get, _MAXREALCONST, rcon, 0, NUM, MAX
*get,_NSOLTHREADS,active,0,ntfs
*get,_NSOLPROCESSES,active,0,npfs
/gopr
*get,_wallasol,active,,time,wall
/post1
/nopr
*dim,_direction,CHAR,6,1
_direction(1) = 'X'
_direction(2) = 'Y'
_direction(3) = 'Z'
_direction(4) = 'ROTX'
_direction(5) = 'ROTY'
_direction(6) = 'ROTZ'
*get,_lastLS,active,0,set,LSTP
*get,_beginset,active,0,set,nset,first,_lastLS
*get,_endset,active,0,set,nset,last,_lastLS
_nummodes = 0
*if,_endset,gt,0,then
_nummodes = _endset - _beginset + 1
*endif
*do,i_mode,1,_nummodes
   *do,j_component,1,6
			*get,PFACT_%i_mode%_%j_component%,MODE,%i_mode%,PFACT,,DIREC,_direction(%j_component%)
   *enddo
*enddo
*dim,_tmdirection,CHAR,6,1
_tmdirection(1) = 'X'
_tmdirection(2) = 'Y'
_tmdirection(3) = 'Z'
_tmdirection(4) = 'X'
_tmdirection(5) = 'Y'
_tmdirection(6) = 'Z'
*do,j_component,1,6
    *if,j_component,gt,3,then
        *get,TOTALMASS_%j_component%,ELEM,0,IOR,_tmdirection(%j_component%)
    *else
        *get,TOTALMASS_%j_component%,ELEM,0,MTOT,_tmdirection(%j_component%)
    *endif
*enddo
/gopr
xmlo,ENCODING,ISO-8859-1
xmlo,parm
/xml,parm,xml
fini
/gopr
*get,_walldone,active,,time,wall
_preptime=(_wallbsol-_wallstrt)*3600
_solvtime=(_wallasol-_wallbsol)*3600
_posttime=(_walldone-_wallasol)*3600
_totaltim=(_walldone-_wallstrt)*3600
*get,_dlbratio,active,0,solu,dlbr
*get,_combtime,active,0,solu,comb
*get,_ssmode,active,0,solu,ssmm
*get,_ndofs,active,0,solu,ndof
/fclean				!clean distributed files
/com,--- Total number of nodes = %_numnode%
/com,--- Total number of elements = %_numelem%
/com,--- Element load balance ratio = %_dlbratio%
/com,--- Time to combine distributed files = %_combtime%
/com,--- Sparse memory mode = %_ssmode%
/com,--- Number of DOF = %_ndofs%
/wb,file,end               ! done with WB generated input
