/batch
/config,noeldb,1     ! force off writing results to database
*get,_wallstrt,active,,time,wall
! ANSYS input file written by Workbench version 2025 R2
! File used for geometry attach: C:\Users\alami\AppData\Local\Temp\WB_alami_21736_2\wbnew_files\dp0\SYS\DM\SYS.agdb
/title,wbnew--Modal (A5)
! ****** Begin Custom Load Command Snippet ******
/COM, ACT Extensions:
/COM,     LSDYNA, 2025.2
/COM,     5f463412-bd3e-484b-87e7-cbc0a665e474, wbex
/COM,/COM,     ANSYSMotion, 2025.2
/COM,     20180725-3f81-49eb-9f31-41364844c769, wbex
/COM,
! ****** End   Custom Load Command Snippet ******
*DIM,_wb_ProjectScratch_dir,string,248
_wb_ProjectScratch_dir(1) = 'C:\Users\alami\AppData\Local\Temp\WB_alami_21736_2\_ProjectScratch\Scr8C61\'
*DIM,_wb_SolverFiles_dir,string,248
_wb_SolverFiles_dir(1) = 'C:\Users\alami\AppData\Local\Temp\WB_alami_21736_2\wbnew_files\dp0\SYS\MECH\'
*DIM,_wb_userfiles_dir,string,248
_wb_userfiles_dir(1) = 'C:\Users\alami\AppData\Local\Temp\WB_alami_21736_2\wbnew_files\user_files\'
/com,--- Data in consistent MKS units. See Solving Units in the help system for more information.
/units,MKS
/nopr
/wb,file,start              !  signify a WB generated input file
/prep7
! Turn off shape checking because checks already performed inside WB mesher.
! See help system for more information.
SHPP,OFF,,NOWARN
/nolist
etcon,set             ! allow ANSYS to choose best KEYOP's for 180x elements, resets any applicable keyopt to MAPDL defaults
/com,*********** Send User Defined Coordinate System(s) ***********
csys,0
/com,*********** Nodes for the whole assembly ***********
nblock,3,,2362
(1i9,3e20.9e3)
        1     7.500000000E+00     1.200000000E+01     2.300000000E+02
        2     7.500000000E+00     1.050000000E+01     2.400000000E+02
        3     7.500000000E+00     1.175000000E+01     2.316666667E+02
        4     7.500000000E+00     1.150000000E+01     2.333333333E+02
        5     7.500000000E+00     1.125000000E+01     2.350000000E+02
        6     7.500000000E+00     1.100000000E+01     2.366666667E+02
        7     7.500000000E+00     1.075000000E+01     2.383333333E+02
        8     7.500000000E+00     1.500000000E+01     2.100000000E+02
        9     7.500000000E+00     1.472727273E+01     2.118181818E+02
       10     7.500000000E+00     1.445454545E+01     2.136363636E+02
       11     7.500000000E+00     1.418181818E+01     2.154545455E+02
       12     7.500000000E+00     1.390909091E+01     2.172727273E+02
       13     7.500000000E+00     1.363636364E+01     2.190909091E+02
       14     7.500000000E+00     1.336363636E+01     2.209090909E+02
       15     7.500000000E+00     1.309090909E+01     2.227272727E+02
       16     7.500000000E+00     1.281818182E+01     2.245454545E+02
       17     7.500000000E+00     1.254545455E+01     2.263636364E+02
       18     7.500000000E+00     1.227272727E+01     2.281818182E+02
       19     7.500000000E+00     1.800000000E+01     1.900000000E+02
       20     7.500000000E+00     1.772727273E+01     1.918181818E+02
! ... 2129 like lines cut
/wb,elem,start            !  set before creation of elements
/com,*********** Elements for Body 1 'Line Body' ***********
et,1,188
keyo,1,3,2
MAT,1 $ TYPE,1 $ REAL,1 $ SECNUM,1 $ ESYS,0
eblock,11,COMPACT,,374
(11i9)
        1        1        3     1040
        2        3        4     1041
        3        4        5     1042
        4        5        6     1043
        5        6        7     1044
        6        7        2     1045
        7        8        9     1046
        8        9       10     1047
        9       10       11     1048
       10       11       12     1049
       11       12       13     1050
       12       13       14     1051
       13       14       15     1052
       14       15       16     1053
       15       16       17     1054
       16       17       18     1055
       17       18        1     1056
       18       19       20     1057
       19       20       21     1058
       20       21       22     1059
! ... 355 like lines cut
secnum,1    ! reset the section ID to default
!Material Id = {9786148D-E7B0-43C5-9D47-1FA9284FE426}
/com,*********** Elements for Body 2 'Line Body' ***********
et,2,188
keyo,2,3,2
MAT,2 $ TYPE,2 $ REAL,2 $ SECNUM,2 $ ESYS,0
eblock,11,COMPACT,,735
(11i9)
      375      133      376     1414
      376      376      377     1415
      377      377      378     1416
      378      378      379     1417
      379      379      380     1418
      380      380      381     1419
      381      381      382     1420
      382      382      356     1421
      383      133      383     1422
      384      383      384     1423
      385      384      385     1424
      386      385      386     1425
      387      386      387     1426
      388      387      388     1427
      389      388      389     1428
      390      389      390     1429
      391      390      391     1430
      392      391        8     1431
      393      144      392     1432
      394      392      393     1433
! ... 716 like lines cut
secnum,1    ! reset the section ID to default
!Material Id = {4CF64EF0-901A-4D39-B0E1-DD9C8F23498E}
/wb,elem,end               !  done creating elements
toffst,273.15,      ! Temperature offset from absolute zero
/com,*********** Set Reference Temperature ***********
tref,22.
/wb,mat,start              !  starting to send materials
/com,*********** Send Materials ***********
Temperature = 'TEMP' ! Temperature
MP,DENS,1,7850,	! kg m^-3
MP,ALPX,1,1.2e-05,	! C^-1
MP,C,1,434,	! J kg^-1 C^-1
MP,KXX,1,60.5,	! W m^-1 C^-1
MP,RSVX,1,1.7e-07,	! kg m^3 A^-2 s^-3
MP,EX,1,200000000000,	! Pa
MP,NUXY,1,0.3,
MP,MURX,1,10000,
MP,UVID,1,26803493-86df-4ddd-bec2-587af12a6f2c
MP,UMID,1,59002a79-71c2-428e-906b-55d7dbee100e

Temperature = 'TEMP' ! Temperature
MP,DENS,2,7850,	! kg m^-3
MP,ALPX,2,1.2e-05,	! C^-1
MP,C,2,434,	! J kg^-1 C^-1
MP,KXX,2,60.5,	! W m^-1 C^-1
MP,RSVX,2,1.7e-07,	! kg m^3 A^-2 s^-3
MP,EX,2,200000000000,	! Pa
MP,NUXY,2,0.3,
MP,MURX,2,10000,
MP,UVID,2,26803493-86df-4ddd-bec2-587af12a6f2c
MP,UMID,2,59002a79-71c2-428e-906b-55d7dbee100e

/wb,mat,end                !  done sending materials
/com,*********** Send Beam Properties ***********
SECTYPE,1,BEAM,CTUB
SECDATA,1.75,1.8
secoffset,cent

SECTYPE,2,BEAM,CTUB
SECDATA,1.6e-002,0.8
secoffset,cent

!************************* Model Summary ********************
!Line Body,	Structural Steel,	matid,	1
!Line Body,	Structural Steel,	matid,	2
!************************* End Model Summary ********************
! get the diagonal of the bounding box. Needed later for other things
*get,_xmin,node,,mnloc,x
*get,_ymin,node,,mnloc,y
*get,_zmin,node,,mnloc,z
*get,_xmax,node,,mxloc,x
*get,_ymax,node,,mxloc,y
*get,_zmax,node,,mxloc,z
_ASMDIAG=(_xmax-_xmin)*(_xmax-_xmin)+(_ymax-_ymin)*(_ymax-_ymin)+(_zmax-_zmin)*(_zmax-_zmin)
_ASMDIAG=SQRT(_ASMDIAG)
/wb,contact,start          !  starting to send contact
/wb,contact,end            !  done creating contacts
/golist
/wb,load,start             !  starting to send loads
/com,******* Constant Zero Displacement X *******
CMBLOCK,_DISPZEROUX,NODE,        5
(8i10)
       123       134       366      1033     -1039
cmsel,s,_DISPZEROUX
d,all,ux,0
nsel,all
/com,******* Constant Zero Displacement Y *******
CMBLOCK,_DISPZEROUY,NODE,        5
(8i10)
       123       134       366      1033     -1039
cmsel,s,_DISPZEROUY
d,all,uy,0
nsel,all
/com,******* Constant Zero Displacement Z *******
CMBLOCK,_DISPZEROUZ,NODE,        5
(8i10)
       123       134       366      1033     -1039
cmsel,s,_DISPZEROUZ
d,all,uz,0
nsel,all
/gst,on,on
fini
*get,_numnode,node,0,count
*get,_numelem,elem,0,count
*get, _MAXELEMNUM, elem, 0, NUM, MAX
*get, _MAXNODENUM, node, 0, NUM, MAX
*get, _MAXELEMTYPE, etyp, 0, NUM, MAX
*get, _MAXREALCONST, rcon, 0, NUM, MAX
/go
/wb,load,end               !  done creating loads
/com,--- Number of total nodes = %_numnode%
/com,--- Number of contact elements = 0
/com,--- Number of spring elements = 0
/com,--- Number of bearing elements = 0
/com,--- Number of solid elements = 1109
/com,--- Number of condensed parts = 0
/com,--- Number of total elements = %_numelem%
*get,_wallbsol,active,,time,wall
/solu
antype,2                   ! modal analysis
_thickRatio=  0     ! Ratio of thick parts in the model
thexpand,off     ! ignore thermal strains
modopt,lanb,10
outres,erase
outres,all,none
outres,nsol,all
outres,nload,all,
/nopr
esel,s,type,,1
esel,a,type,,2
cm,_elmisc,elem
esel,all
/gopr
outres,misc,all,_elmisc
mxpand,,,,yes,,no             ! expand requested element results, but not write them to file.mode
dmpopt,esav,no
dmpopt,emat,no
dmpopt,full,no
! *********** WB SOLVE COMMAND ***********
! check interactive state
*get,ANSINTER_,active,,int
*if,ANSINTER_,ne,0,then
/eof
*endif
solve
/com *************** Write FE CONNECTORS ********* 
CEWRITE,file,ce,,INTE
*get,_nmodalsolproc,active,0,numcpu
fini
/nopr
*get,_numnode,node,0,count
*get,_numelem,elem,0,count
*get, _MAXELEMNUM, elem, 0, NUM, MAX
*get, _MAXNODENUM, node, 0, NUM, MAX,,,INTERNAL
*get, _MAXELEMTYPE, etyp, 0, NUM, MAX
*get, _MAXREALCONST, rcon, 0, NUM, MAX
*get,_NSOLTHREADS,active,0,ntfs
*get,_NSOLPROCESSES,active,0,npfs
/gopr
*get,_wallasol,active,,time,wall
/post1
/nopr
*dim,_direction,CHAR,6,1
_direction(1) = 'X'
_direction(2) = 'Y'
_direction(3) = 'Z'
_direction(4) = 'ROTX'
_direction(5) = 'ROTY'
_direction(6) = 'ROTZ'
*get,_lastLS,active,0,set,LSTP
*get,_beginset,active,0,set,nset,first,_lastLS
*get,_endset,active,0,set,nset,last,_lastLS
_nummodes = 0
*if,_endset,gt,0,then
_nummodes = _endset - _beginset + 1
*endif
*do,i_mode,1,_nummodes
   *do,j_component,1,6
			*get,PFACT_%i_mode%_%j_component%,MODE,%i_mode%,PFACT,,DIREC,_direction(%j_component%)
   *enddo
*enddo
*dim,_tmdirection,CHAR,6,1
_tmdirection(1) = 'X'
_tmdirection(2) = 'Y'
_tmdirection(3) = 'Z'
_tmdirection(4) = 'X'
_tmdirection(5) = 'Y'
_tmdirection(6) = 'Z'
*do,j_component,1,6
    *if,j_component,gt,3,then
        *get,TOTALMASS_%j_component%,ELEM,0,IOR,_tmdirection(%j_component%)
    *else
        *get,TOTALMASS_%j_component%,ELEM,0,MTOT,_tmdirection(%j_component%)
    *endif
*enddo
/gopr
xmlo,ENCODING,ISO-8859-1
xmlo,parm
/xml,parm,xml
fini
/gopr
*get,_walldone,active,,time,wall
_preptime=(_wallbsol-_wallstrt)*3600
_solvtime=(_wallasol-_wallbsol)*3600
_posttime=(_walldone-_wallasol)*3600
_totaltim=(_walldone-_wallstrt)*3600
*get,_dlbratio,active,0,solu,dlbr
*get,_combtime,active,0,solu,comb
*get,_ssmode,active,0,solu,ssmm
*get,_ndofs,active,0,solu,ndof
/fclean				!clean distributed files
/com,--- Total number of nodes = %_numnode%
/com,--- Total number of elements = %_numelem%
/com,--- Element load balance ratio = %_dlbratio%
/com,--- Time to combine distributed files = %_combtime%
/com,--- Sparse memory mode = %_ssmode%
/com,--- Number of DOF = %_ndofs%
/wb,file,end               ! done with WB generated input
