/batch
/config,noeldb,1     ! force off writing results to database
*get,_wallstrt,active,,time,wall
! ANSYS input file written by Workbench version 2025 R2
! File used for geometry attach: C:\Users\alami\Documents\Msc Civil Engineering\Year 2\Master Thesis\MSc-thesis---Minimal-model-of-the-Maeslantkering\ANSYS_FEM_truss\connecting_truss_files\dp0\SYS\DM\SYS.agdb
/title,connecting_truss--Modal (A5)
! ****** Begin Custom Load Command Snippet ******
/COM, ACT Extensions:
/COM,     LSDYNA, 2025.2
/COM,     5f463412-bd3e-484b-87e7-cbc0a665e474, wbex
/COM,/COM,     ANSYSMotion, 2025.2
/COM,     20180725-3f81-49eb-9f31-41364844c769, wbex
/COM,
! ****** End   Custom Load Command Snippet ******
*DIM,_wb_ProjectScratch_dir,string,248
_wb_ProjectScratch_dir(1) = 'C:\Users\alami\Documents\Msc Civil Engineering\Year 2\Master Thesis\MSc-thesis---Minimal-model-of-the-Maeslantkering\ANSYS_FEM_truss\_ProjectScratch\ScrC507\'
*DIM,_wb_SolverFiles_dir,string,248
_wb_SolverFiles_dir(1) = 'C:\Users\alami\Documents\Msc Civil Engineering\Year 2\Master Thesis\MSc-thesis---Minimal-model-of-the-Maeslantkering\ANSYS_FEM_truss\connecting_truss_files\dp0\SYS\MECH\'
*DIM,_wb_userfiles_dir,string,248
_wb_userfiles_dir(1) = 'C:\Users\alami\Documents\Msc Civil Engineering\Year 2\Master Thesis\MSc-thesis---Minimal-model-of-the-Maeslantkering\ANSYS_FEM_truss\connecting_truss_files\user_files\'
/com,--- Data in consistent MKS units. See Solving Units in the help system for more information.
/units,MKS
/nopr
/wb,file,start              !  signify a WB generated input file
/prep7
! Turn off shape checking because checks already performed inside WB mesher.
! See help system for more information.
SHPP,OFF,,NOWARN
/nolist
etcon,set             ! allow ANSYS to choose best KEYOP's for 180x elements, resets any applicable keyopt to MAPDL defaults
/com,*********** Send User Defined Coordinate System(s) ***********
csys,0
/com,*********** Nodes for the whole assembly ***********
nblock,3,,1757
(1i9,3e20.9e3)
        1     4.500000000E+01     1.400000000E-14     9.000000000E-15
        2     6.000000000E+01     0.000000000E+00     0.000000000E+00
        3     4.600000000E+01     1.306666667E-14     8.400000000E-15
        4     4.700000000E+01     1.213333333E-14     7.800000000E-15
        5     4.800000000E+01     1.120000000E-14     7.200000000E-15
        6     4.900000000E+01     1.026666667E-14     6.600000000E-15
        7     5.000000000E+01     9.333333333E-15     6.000000000E-15
        8     5.100000000E+01     8.400000000E-15     5.400000000E-15
        9     5.200000000E+01     7.466666667E-15     4.800000000E-15
       10     5.300000000E+01     6.533333333E-15     4.200000000E-15
       11     5.400000000E+01     5.600000000E-15     3.600000000E-15
       12     5.500000000E+01     4.666666667E-15     3.000000000E-15
       13     5.600000000E+01     3.733333333E-15     2.400000000E-15
       14     5.700000000E+01     2.800000000E-15     1.800000000E-15
       15     5.800000000E+01     1.866666667E-15     1.200000000E-15
       16     5.900000000E+01     9.333333333E-16     6.000000000E-16
       17     3.000000000E+01     2.800000000E-14     1.400000000E-14
       18     3.100000000E+01     2.706666667E-14     1.366666667E-14
       19     3.200000000E+01     2.613333333E-14     1.333333333E-14
       20     3.300000000E+01     2.520000000E-14     1.300000000E-14
! ... 1579 like lines cut
/wb,elem,start            !  set before creation of elements
/com,*********** Elements for Body 1 'Line Body' ***********
et,1,188
keyo,1,3,2
MAT,1 $ TYPE,1 $ REAL,1 $ SECNUM,1 $ ESYS,0
eblock,11,COMPACT,,60
(11i9)
        1        1        3      787
        2        3        4      788
        3        4        5      789
        4        5        6      790
        5        6        7      791
        6        7        8      792
        7        8        9      793
        8        9       10      794
        9       10       11      795
       10       11       12      796
       11       12       13      797
       12       13       14      798
       13       14       15      799
       14       15       16      800
       15       16        2      801
       16       17       18      802
       17       18       19      803
       18       19       20      804
       19       20       21      805
       20       21       22      806
! ... 41 like lines cut
secnum,1    ! reset the section ID to default
!Material Id = {82516995-E2FA-4F40-8A2B-55E128D88902}
/com,*********** Elements for Body 2 'Line Body' ***********
et,2,188
keyo,2,3,2
MAT,2 $ TYPE,2 $ REAL,2 $ SECNUM,2 $ ESYS,0
eblock,11,COMPACT,,60
(11i9)
       61       62       64      847
       62       64       65      848
       63       65       66      849
       64       66       67      850
       65       67       68      851
       66       68       69      852
       67       69       70      853
       68       70       71      854
       69       71       72      855
       70       72       73      856
       71       73       74      857
       72       74       75      858
       73       75       76      859
       74       76       77      860
       75       77       63      861
       76       78       79      862
       77       79       80      863
       78       80       81      864
       79       81       82      865
       80       82       83      866
! ... 41 like lines cut
secnum,1    ! reset the section ID to default
!Material Id = {55F1119A-468C-4EB1-BA57-38EC08D7AEDC}
/com,*********** Elements for Body 3 'Line Body' ***********
et,3,188
keyo,3,3,2
MAT,3 $ TYPE,3 $ REAL,3 $ SECNUM,3 $ ESYS,0
eblock,11,COMPACT,,157
(11i9)
      121       78      123      907
      122      123      124      908
      123      124      125      909
      124      125      126      910
      125      126      127      911
      126      127      128      912
      127      128      129      913
      128      129      130      914
      129      130      131      915
      130      131      132      916
      131      132      133      917
      132      133      134      918
      133      134      135      919
      134      135      136      920
      135      136      137      921
      136      137      138      922
      137      138      139      923
      138      139      140      924
      139      140       17      925
      140       62      141      926
! ... 138 like lines cut
secnum,1    ! reset the section ID to default
!Material Id = {FD24331D-681B-4037-BD62-289E9F12E074}
/com,*********** Elements for Body 4 'Line Body' ***********
et,4,188
keyo,4,3,2
MAT,4 $ TYPE,4 $ REAL,4 $ SECNUM,4 $ ESYS,0
eblock,11,COMPACT,,61
(11i9)
      278      273      275     1064
      279      275      276     1065
      280      276      277     1066
      281      277      278     1067
      282      278      279     1068
      283      279      280     1069
      284      280      281     1070
      285      281      274     1071
      286      282      283     1072
      287      283      284     1073
      288      284      285     1074
      289      285      286     1075
      290      286      287     1076
      291      287      288     1077
      292      288      289     1078
      293      289      290     1079
      294      290      291     1080
      295      291      292     1081
      296      292      293     1082
      297      293      294     1083
! ... 42 like lines cut
secnum,1    ! reset the section ID to default
!Material Id = {0316E9BF-CA20-47B4-9415-186BADC2FC8C}
/com,*********** Elements for Body 5 'Line Body' ***********
et,5,188
keyo,5,3,2
MAT,5 $ TYPE,5 $ REAL,5 $ SECNUM,5 $ ESYS,0
eblock,11,COMPACT,,352
(11i9)
      339      312      335     1125
      340      335      336     1126
      341      336      337     1127
      342      337      338     1128
      343      338      339     1129
      344      339      340     1130
      345      340      341     1131
      346      341      342     1132
      347      342      343     1133
      348      343      344     1134
      349      344      345     1135
      350      345      346     1136
      351      346      347     1137
      352      347      348     1138
      353      348      349     1139
      354      349      350     1140
      355      350      351     1141
      356      351      352     1142
      357      352      353     1143
      358      353      354     1144
! ... 333 like lines cut
secnum,1    ! reset the section ID to default
!Material Id = {598B46F7-CE34-427A-A94A-20408D8F03E5}
/com,*********** Elements for Body 6 'Line Body' ***********
et,6,188
keyo,6,3,2
MAT,6 $ TYPE,6 $ REAL,6 $ SECNUM,6 $ ESYS,0
eblock,11,COMPACT,,61
(11i9)
      691      108      671     1477
      692      671      672     1478
      693      672      673     1479
      694      673      674     1480
      695      674      675     1481
      696      675      676     1482
      697      676      677     1483
      698      677      678     1484
      699      678      679     1485
      700      679      680     1486
      701      680      681     1487
      702      681      682     1488
      703      682      683     1489
      704      683      684     1490
      705      684      685     1491
      706      685      686     1492
      707      686      687     1493
      708      687      688     1494
      709      688       47     1495
      710       47      689     1496
! ... 42 like lines cut
secnum,1    ! reset the section ID to default
!Material Id = {5B0E6850-5489-409C-853E-44CE4DECACB3}
/com,*********** Elements for Body 7 'Line Body' ***********
et,7,188
keyo,7,3,2
MAT,7 $ TYPE,7 $ REAL,7 $ SECNUM,7 $ ESYS,0
eblock,11,COMPACT,,61
(11i9)
      752        2      729     1538
      753      729      730     1539
      754      730      731     1540
      755      731      732     1541
      756      732      733     1542
      757      733      734     1543
      758      734      735     1544
      759      735      736     1545
      760      736      737     1546
      761      737      738     1547
      762      738      739     1548
      763      739      740     1549
      764      740      741     1550
      765      741      742     1551
      766      742      743     1552
      767      743      744     1553
      768      744      745     1554
      769      745      746     1555
      770      746       62     1556
      771      274      747     1557
! ... 42 like lines cut
secnum,1    ! reset the section ID to default
!Material Id = {C7403760-B5DC-4A26-B538-0DA5D4CDE46F}
/wb,elem,end               !  done creating elements
toffst,273.15,      ! Temperature offset from absolute zero
/com,*********** Set Reference Temperature ***********
tref,22.
/wb,mat,start              !  starting to send materials
/com,*********** Send Materials ***********
Temperature = 'TEMP' ! Temperature
MP,DENS,1,7850,	! kg m^-3
MP,ALPX,1,1.2e-05,	! C^-1
MP,C,1,434,	! J kg^-1 C^-1
MP,KXX,1,60.5,	! W m^-1 C^-1
MP,RSVX,1,1.7e-07,	! kg m^3 A^-2 s^-3
MP,EX,1,200000000000,	! Pa
MP,NUXY,1,0.3,
MP,MURX,1,10000,
MP,UVID,1,77a32c92-c7b5-4d8b-a875-cdefc4bd90b3
MP,UMID,1,59002a79-71c2-428e-906b-55d7dbee100e

Temperature = 'TEMP' ! Temperature
MP,DENS,2,7850,	! kg m^-3
MP,ALPX,2,1.2e-05,	! C^-1
MP,C,2,434,	! J kg^-1 C^-1
MP,KXX,2,60.5,	! W m^-1 C^-1
MP,RSVX,2,1.7e-07,	! kg m^3 A^-2 s^-3
MP,EX,2,200000000000,	! Pa
MP,NUXY,2,0.3,
MP,MURX,2,10000,
MP,UVID,2,77a32c92-c7b5-4d8b-a875-cdefc4bd90b3
MP,UMID,2,59002a79-71c2-428e-906b-55d7dbee100e

Temperature = 'TEMP' ! Temperature
MP,DENS,3,7850,	! kg m^-3
MP,ALPX,3,1.2e-05,	! C^-1
MP,C,3,434,	! J kg^-1 C^-1
MP,KXX,3,60.5,	! W m^-1 C^-1
MP,RSVX,3,1.7e-07,	! kg m^3 A^-2 s^-3
MP,EX,3,200000000000,	! Pa
MP,NUXY,3,0.3,
MP,MURX,3,10000,
MP,UVID,3,77a32c92-c7b5-4d8b-a875-cdefc4bd90b3
MP,UMID,3,59002a79-71c2-428e-906b-55d7dbee100e

Temperature = 'TEMP' ! Temperature
MP,DENS,4,7850,	! kg m^-3
MP,ALPX,4,1.2e-05,	! C^-1
MP,C,4,434,	! J kg^-1 C^-1
MP,KXX,4,60.5,	! W m^-1 C^-1
MP,RSVX,4,1.7e-07,	! kg m^3 A^-2 s^-3
MP,EX,4,200000000000,	! Pa
MP,NUXY,4,0.3,
MP,MURX,4,10000,
MP,UVID,4,77a32c92-c7b5-4d8b-a875-cdefc4bd90b3
MP,UMID,4,59002a79-71c2-428e-906b-55d7dbee100e

Temperature = 'TEMP' ! Temperature
MP,DENS,5,7850,	! kg m^-3
MP,ALPX,5,1.2e-05,	! C^-1
MP,C,5,434,	! J kg^-1 C^-1
MP,KXX,5,60.5,	! W m^-1 C^-1
MP,RSVX,5,1.7e-07,	! kg m^3 A^-2 s^-3
MP,EX,5,200000000000,	! Pa
MP,NUXY,5,0.3,
MP,MURX,5,10000,
MP,UVID,5,77a32c92-c7b5-4d8b-a875-cdefc4bd90b3
MP,UMID,5,59002a79-71c2-428e-906b-55d7dbee100e

Temperature = 'TEMP' ! Temperature
MP,DENS,6,7850,	! kg m^-3
MP,ALPX,6,1.2e-05,	! C^-1
MP,C,6,434,	! J kg^-1 C^-1
MP,KXX,6,60.5,	! W m^-1 C^-1
MP,RSVX,6,1.7e-07,	! kg m^3 A^-2 s^-3
MP,EX,6,200000000000,	! Pa
MP,NUXY,6,0.3,
MP,MURX,6,10000,
MP,UVID,6,77a32c92-c7b5-4d8b-a875-cdefc4bd90b3
MP,UMID,6,59002a79-71c2-428e-906b-55d7dbee100e

Temperature = 'TEMP' ! Temperature
MP,DENS,7,7850,	! kg m^-3
MP,ALPX,7,1.2e-05,	! C^-1
MP,C,7,434,	! J kg^-1 C^-1
MP,KXX,7,60.5,	! W m^-1 C^-1
MP,RSVX,7,1.7e-07,	! kg m^3 A^-2 s^-3
MP,EX,7,200000000000,	! Pa
MP,NUXY,7,0.3,
MP,MURX,7,10000,
MP,UVID,7,77a32c92-c7b5-4d8b-a875-cdefc4bd90b3
MP,UMID,7,59002a79-71c2-428e-906b-55d7dbee100e

/wb,mat,end                !  done sending materials
/com,*********** Send Beam Properties ***********
SECTYPE,1,BEAM,CTUB
SECDATA,0.98,1.
secoffset,cent

SECTYPE,2,BEAM,CTUB
SECDATA,0.98,1.
secoffset,cent

SECTYPE,3,BEAM,CTUB
SECDATA,0.49,0.5
secoffset,cent

SECTYPE,4,BEAM,CTUB
SECDATA,0.98,1.
secoffset,cent

SECTYPE,5,BEAM,CTUB
SECDATA,0.49,0.5
secoffset,cent

SECTYPE,6,BEAM,CTUB
SECDATA,0.49,0.5
secoffset,cent

SECTYPE,7,BEAM,CTUB
SECDATA,0.49,0.5
secoffset,cent

!************************* Model Summary ********************
!Line Body,	Structural Steel,	matid,	1
!Line Body,	Structural Steel,	matid,	2
!Line Body,	Structural Steel,	matid,	3
!Line Body,	Structural Steel,	matid,	4
!Line Body,	Structural Steel,	matid,	5
!Line Body,	Structural Steel,	matid,	6
!Line Body,	Structural Steel,	matid,	7
!************************* End Model Summary ********************
! get the diagonal of the bounding box. Needed later for other things
*get,_xmin,node,,mnloc,x
*get,_ymin,node,,mnloc,y
*get,_zmin,node,,mnloc,z
*get,_xmax,node,,mxloc,x
*get,_ymax,node,,mxloc,y
*get,_zmax,node,,mxloc,z
_ASMDIAG=(_xmax-_xmin)*(_xmax-_xmin)+(_ymax-_ymin)*(_ymax-_ymin)+(_zmax-_zmin)*(_zmax-_zmin)
_ASMDIAG=SQRT(_ASMDIAG)
/wb,contact,start          !  starting to send contact
/wb,contact,end            !  done creating contacts
/golist
/wb,load,start             !  starting to send loads
/com,******* Constant Zero Displacement X *******
CMBLOCK,_DISPZEROUX,NODE,        6
(8i10)
         2        47        62       108       274       327
cmsel,s,_DISPZEROUX
d,all,ux,0
nsel,all
/com,******* Constant Zero Displacement Y *******
CMBLOCK,_DISPZEROUY,NODE,        6
(8i10)
         2        47        62       108       274       327
cmsel,s,_DISPZEROUY
d,all,uy,0
nsel,all
/com,******* Constant Zero Displacement Z *******
CMBLOCK,_DISPZEROUZ,NODE,        6
(8i10)
         2        47        62       108       274       327
cmsel,s,_DISPZEROUZ
d,all,uz,0
nsel,all
/gst,on,on
fini
*get,_numnode,node,0,count
*get,_numelem,elem,0,count
*get, _MAXELEMNUM, elem, 0, NUM, MAX
*get, _MAXNODENUM, node, 0, NUM, MAX
*get, _MAXELEMTYPE, etyp, 0, NUM, MAX
*get, _MAXREALCONST, rcon, 0, NUM, MAX
/go
/wb,load,end               !  done creating loads
/com,--- Number of total nodes = %_numnode%
/com,--- Number of contact elements = 0
/com,--- Number of spring elements = 0
/com,--- Number of bearing elements = 0
/com,--- Number of solid elements = 812
/com,--- Number of condensed parts = 0
/com,--- Number of total elements = %_numelem%
*get,_wallbsol,active,,time,wall
/solu
antype,2                   ! modal analysis
_thickRatio=  0     ! Ratio of thick parts in the model
thexpand,off     ! ignore thermal strains
modopt,lanb,6
outres,erase
outres,all,none
outres,nsol,all
outres,nload,all,
/nopr
esel,s,type,,1
esel,a,type,,2,7
cm,_elmisc,elem
esel,all
/gopr
outres,misc,all,_elmisc
mxpand,,,,yes,,no             ! expand requested element results, but not write them to file.mode
dmpopt,esav,no
dmpopt,emat,no
dmpopt,full,no
! *********** WB SOLVE COMMAND ***********
! check interactive state
*get,ANSINTER_,active,,int
*if,ANSINTER_,ne,0,then
/eof
*endif
solve
/com *************** Write FE CONNECTORS ********* 
CEWRITE,file,ce,,INTE
*get,_nmodalsolproc,active,0,numcpu
fini
/nopr
*get,_numnode,node,0,count
*get,_numelem,elem,0,count
*get, _MAXELEMNUM, elem, 0, NUM, MAX
*get, _MAXNODENUM, node, 0, NUM, MAX,,,INTERNAL
*get, _MAXELEMTYPE, etyp, 0, NUM, MAX
*get, _MAXREALCONST, rcon, 0, NUM, MAX
*get,_NSOLTHREADS,active,0,ntfs
*get,_NSOLPROCESSES,active,0,npfs
/gopr
*get,_wallasol,active,,time,wall
/post1
/nopr
*dim,_direction,CHAR,6,1
_direction(1) = 'X'
_direction(2) = 'Y'
_direction(3) = 'Z'
_direction(4) = 'ROTX'
_direction(5) = 'ROTY'
_direction(6) = 'ROTZ'
*get,_lastLS,active,0,set,LSTP
*get,_beginset,active,0,set,nset,first,_lastLS
*get,_endset,active,0,set,nset,last,_lastLS
_nummodes = 0
*if,_endset,gt,0,then
_nummodes = _endset - _beginset + 1
*endif
*do,i_mode,1,_nummodes
   *do,j_component,1,6
			*get,PFACT_%i_mode%_%j_component%,MODE,%i_mode%,PFACT,,DIREC,_direction(%j_component%)
   *enddo
*enddo
*dim,_tmdirection,CHAR,6,1
_tmdirection(1) = 'X'
_tmdirection(2) = 'Y'
_tmdirection(3) = 'Z'
_tmdirection(4) = 'X'
_tmdirection(5) = 'Y'
_tmdirection(6) = 'Z'
*do,j_component,1,6
    *if,j_component,gt,3,then
        *get,TOTALMASS_%j_component%,ELEM,0,IOR,_tmdirection(%j_component%)
    *else
        *get,TOTALMASS_%j_component%,ELEM,0,MTOT,_tmdirection(%j_component%)
    *endif
*enddo
/gopr
xmlo,ENCODING,ISO-8859-1
xmlo,parm
/xml,parm,xml
fini
/gopr
*get,_walldone,active,,time,wall
_preptime=(_wallbsol-_wallstrt)*3600
_solvtime=(_wallasol-_wallbsol)*3600
_posttime=(_walldone-_wallasol)*3600
_totaltim=(_walldone-_wallstrt)*3600
*get,_dlbratio,active,0,solu,dlbr
*get,_combtime,active,0,solu,comb
*get,_ssmode,active,0,solu,ssmm
*get,_ndofs,active,0,solu,ndof
/fclean				!clean distributed files
/com,--- Total number of nodes = %_numnode%
/com,--- Total number of elements = %_numelem%
/com,--- Element load balance ratio = %_dlbratio%
/com,--- Time to combine distributed files = %_combtime%
/com,--- Sparse memory mode = %_ssmode%
/com,--- Number of DOF = %_ndofs%
/wb,file,end               ! done with WB generated input
